In file included from sim-outorder.c:88:
sim-outorder.c: In function ‘il1_access_fn’:
misc.h:116:20: warning: passing argument 2 of ‘_panic’ discards ‘const’ qualifier from pointer target type [-Wdiscarded-qualifiers]
  116 |   _panic(__FILE__, __FUNCTION__, __LINE__, fmt, ## args)
      |                    ^~~~~~~~~~~~
sim-outorder.c:769:9: note: in expansion of macro ‘panic’
  769 |         panic("writes to instruction memory not supported");
      |         ^~~~~
misc.h:119:26: note: expected ‘char *’ but argument is of type ‘const char *’
  119 | _panic(char *file, char *func, int line, char *fmt, ...)
      |                    ~~~~~~^~~~
misc.h:116:20: warning: passing argument 2 of ‘_panic’ discards ‘const’ qualifier from pointer target type [-Wdiscarded-qualifiers]
  116 |   _panic(__FILE__, __FUNCTION__, __LINE__, fmt, ## args)
      |                    ^~~~~~~~~~~~
sim-outorder.c:777:9: note: in expansion of macro ‘panic’
  777 |         panic("writes to instruction memory not supported");
      |         ^~~~~
misc.h:119:26: note: expected ‘char *’ but argument is of type ‘const char *’
  119 | _panic(char *file, char *func, int line, char *fmt, ...)
      |                    ~~~~~~^~~~
sim-outorder.c: In function ‘il2_access_fn’:
misc.h:116:20: warning: passing argument 2 of ‘_panic’ discards ‘const’ qualifier from pointer target type [-Wdiscarded-qualifiers]
  116 |   _panic(__FILE__, __FUNCTION__, __LINE__, fmt, ## args)
      |                    ^~~~~~~~~~~~
sim-outorder.c:796:5: note: in expansion of macro ‘panic’
  796 |     panic("writes to instruction memory not supported");
      |     ^~~~~
misc.h:119:26: note: expected ‘char *’ but argument is of type ‘const char *’
  119 | _panic(char *file, char *func, int line, char *fmt, ...)
      |                    ~~~~~~^~~~
sim-outorder.c: In function ‘sim_check_options’:
misc.h:103:20: warning: passing argument 2 of ‘_fatal’ discards ‘const’ qualifier from pointer target type [-Wdiscarded-qualifiers]
  103 |   _fatal(__FILE__, __FUNCTION__, __LINE__, fmt, ## args)
      |                    ^~~~~~~~~~~~
sim-outorder.c:1230:5: note: in expansion of macro ‘fatal’
 1230 |     fatal("bad fast forward count: %d", fastfwd_count);
      |     ^~~~~
misc.h:106:26: note: expected ‘char *’ but argument is of type ‘const char *’
  106 | _fatal(char *file, char *func, int line, char *fmt, ...)
      |                    ~~~~~~^~~~
misc.h:103:20: warning: passing argument 2 of ‘_fatal’ discards ‘const’ qualifier from pointer target type [-Wdiscarded-qualifiers]
  103 |   _fatal(__FILE__, __FUNCTION__, __LINE__, fmt, ## args)
      |                    ^~~~~~~~~~~~
sim-outorder.c:1235:5: note: in expansion of macro ‘fatal’
 1235 |     fatal("front-end speed must be positive and non-zero");
      |     ^~~~~
misc.h:106:26: note: expected ‘char *’ but argument is of type ‘const char *’
  106 | _fatal(char *file, char *func, int line, char *fmt, ...)
      |                    ~~~~~~^~~~
misc.h:103:20: warning: passing argument 2 of ‘_fatal’ discards ‘const’ qualifier from pointer target type [-Wdiscarded-qualifiers]
  103 |   _fatal(__FILE__, __FUNCTION__, __LINE__, fmt, ## args)
      |                    ^~~~~~~~~~~~
sim-outorder.c:1259:13: note: in expansion of macro ‘fatal’
 1259 |             fatal("bad bimod predictor config (<table_size>)");
      |             ^~~~~
misc.h:106:26: note: expected ‘char *’ but argument is of type ‘const char *’
  106 | _fatal(char *file, char *func, int line, char *fmt, ...)
      |                    ~~~~~~^~~~
misc.h:103:20: warning: passing argument 2 of ‘_fatal’ discards ‘const’ qualifier from pointer target type [-Wdiscarded-qualifiers]
  103 |   _fatal(__FILE__, __FUNCTION__, __LINE__, fmt, ## args)
      |                    ^~~~~~~~~~~~
sim-outorder.c:1261:13: note: in expansion of macro ‘fatal’
 1261 |             fatal("bad btb config (<num_sets> <associativity>)");
      |             ^~~~~
misc.h:106:26: note: expected ‘char *’ but argument is of type ‘const char *’
  106 | _fatal(char *file, char *func, int line, char *fmt, ...)
      |                    ~~~~~~^~~~
misc.h:103:20: warning: passing argument 2 of ‘_fatal’ discards ‘const’ qualifier from pointer target type [-Wdiscarded-qualifiers]
  103 |   _fatal(__FILE__, __FUNCTION__, __LINE__, fmt, ## args)
      |                    ^~~~~~~~~~~~
sim-outorder.c:1279:13: note: in expansion of macro ‘fatal’
 1279 |             fatal("bad 2-level pred config (<l1size> <l2size> <hist_size> <xor>)");
      |             ^~~~~
misc.h:106:26: note: expected ‘char *’ but argument is of type ‘const char *’
  106 | _fatal(char *file, char *func, int line, char *fmt, ...)
      |                    ~~~~~~^~~~
misc.h:103:20: warning: passing argument 2 of ‘_fatal’ discards ‘const’ qualifier from pointer target type [-Wdiscarded-qualifiers]
  103 |   _fatal(__FILE__, __FUNCTION__, __LINE__, fmt, ## args)
      |                    ^~~~~~~~~~~~
sim-outorder.c:1281:13: note: in expansion of macro ‘fatal’
 1281 |             fatal("bad btb config (<num_sets> <associativity>)");
      |             ^~~~~
misc.h:106:26: note: expected ‘char *’ but argument is of type ‘const char *’
  106 | _fatal(char *file, char *func, int line, char *fmt, ...)
      |                    ~~~~~~^~~~
misc.h:103:20: warning: passing argument 2 of ‘_fatal’ discards ‘const’ qualifier from pointer target type [-Wdiscarded-qualifiers]
  103 |   _fatal(__FILE__, __FUNCTION__, __LINE__, fmt, ## args)
      |                    ^~~~~~~~~~~~
sim-outorder.c:1298:13: note: in expansion of macro ‘fatal’
 1298 |             fatal("bad 2-level pred config (<l1size> <l2size> <hist_size> <xor>)");
      |             ^~~~~
misc.h:106:26: note: expected ‘char *’ but argument is of type ‘const char *’
  106 | _fatal(char *file, char *func, int line, char *fmt, ...)
      |                    ~~~~~~^~~~
misc.h:103:20: warning: passing argument 2 of ‘_fatal’ discards ‘const’ qualifier from pointer target type [-Wdiscarded-qualifiers]
  103 |   _fatal(__FILE__, __FUNCTION__, __LINE__, fmt, ## args)
      |                    ^~~~~~~~~~~~
sim-outorder.c:1300:13: note: in expansion of macro ‘fatal’
 1300 |             fatal("bad bimod predictor config (<table_size>)");
      |             ^~~~~
misc.h:106:26: note: expected ‘char *’ but argument is of type ‘const char *’
  106 | _fatal(char *file, char *func, int line, char *fmt, ...)
      |                    ~~~~~~^~~~
misc.h:103:20: warning: passing argument 2 of ‘_fatal’ discards ‘const’ qualifier from pointer target type [-Wdiscarded-qualifiers]
  103 |   _fatal(__FILE__, __FUNCTION__, __LINE__, fmt, ## args)
      |                    ^~~~~~~~~~~~
sim-outorder.c:1302:13: note: in expansion of macro ‘fatal’
 1302 |             fatal("bad combining predictor config (<meta_table_size>)");
      |             ^~~~~
misc.h:106:26: note: expected ‘char *’ but argument is of type ‘const char *’
  106 | _fatal(char *file, char *func, int line, char *fmt, ...)
      |                    ~~~~~~^~~~
misc.h:103:20: warning: passing argument 2 of ‘_fatal’ discards ‘const’ qualifier from pointer target type [-Wdiscarded-qualifiers]
  103 |   _fatal(__FILE__, __FUNCTION__, __LINE__, fmt, ## args)
      |                    ^~~~~~~~~~~~
sim-outorder.c:1304:13: note: in expansion of macro ‘fatal’
 1304 |             fatal("bad btb config (<num_sets> <associativity>)");
      |             ^~~~~
misc.h:106:26: note: expected ‘char *’ but argument is of type ‘const char *’
  106 | _fatal(char *file, char *func, int line, char *fmt, ...)
      |                    ~~~~~~^~~~
misc.h:103:20: warning: passing argument 2 of ‘_fatal’ discards ‘const’ qualifier from pointer target type [-Wdiscarded-qualifiers]
  103 |   _fatal(__FILE__, __FUNCTION__, __LINE__, fmt, ## args)
      |                    ^~~~~~~~~~~~
sim-outorder.c:1318:9: note: in expansion of macro ‘fatal’
 1318 |         fatal("cannot parse predictor type `%s'", pred_type);
      |         ^~~~~
misc.h:106:26: note: expected ‘char *’ but argument is of type ‘const char *’
  106 | _fatal(char *file, char *func, int line, char *fmt, ...)
      |                    ~~~~~~^~~~
misc.h:103:20: warning: passing argument 2 of ‘_fatal’ discards ‘const’ qualifier from pointer target type [-Wdiscarded-qualifiers]
  103 |   _fatal(__FILE__, __FUNCTION__, __LINE__, fmt, ## args)
      |                    ^~~~~~~~~~~~
sim-outorder.c:1343:13: note: in expansion of macro ‘fatal’
 1343 |             fatal("bad cbimod predictor config (<table_size>)");
      |             ^~~~~
misc.h:106:26: note: expected ‘char *’ but argument is of type ‘const char *’
  106 | _fatal(char *file, char *func, int line, char *fmt, ...)
      |                    ~~~~~~^~~~
misc.h:103:20: warning: passing argument 2 of ‘_fatal’ discards ‘const’ qualifier from pointer target type [-Wdiscarded-qualifiers]
  103 |   _fatal(__FILE__, __FUNCTION__, __LINE__, fmt, ## args)
      |                    ^~~~~~~~~~~~
sim-outorder.c:1345:13: note: in expansion of macro ‘fatal’
 1345 |             fatal("bad cbtb config (<num_sets> <associativity>)");
      |             ^~~~~
misc.h:106:26: note: expected ‘char *’ but argument is of type ‘const char *’
  106 | _fatal(char *file, char *func, int line, char *fmt, ...)
      |                    ~~~~~~^~~~
misc.h:103:20: warning: passing argument 2 of ‘_fatal’ discards ‘const’ qualifier from pointer target type [-Wdiscarded-qualifiers]
  103 |   _fatal(__FILE__, __FUNCTION__, __LINE__, fmt, ## args)
      |                    ^~~~~~~~~~~~
sim-outorder.c:1363:13: note: in expansion of macro ‘fatal’
 1363 |             fatal("bad 2-level pred config (<l1size> <l2size> <hist_size> <xor>)");
      |             ^~~~~
misc.h:106:26: note: expected ‘char *’ but argument is of type ‘const char *’
  106 | _fatal(char *file, char *func, int line, char *fmt, ...)
      |                    ~~~~~~^~~~
misc.h:103:20: warning: passing argument 2 of ‘_fatal’ discards ‘const’ qualifier from pointer target type [-Wdiscarded-qualifiers]
  103 |   _fatal(__FILE__, __FUNCTION__, __LINE__, fmt, ## args)
      |                    ^~~~~~~~~~~~
sim-outorder.c:1365:13: note: in expansion of macro ‘fatal’
 1365 |             fatal("bad btb config (<num_sets> <associativity>)");
      |             ^~~~~
misc.h:106:26: note: expected ‘char *’ but argument is of type ‘const char *’
  106 | _fatal(char *file, char *func, int line, char *fmt, ...)
      |                    ~~~~~~^~~~
misc.h:103:20: warning: passing argument 2 of ‘_fatal’ discards ‘const’ qualifier from pointer target type [-Wdiscarded-qualifiers]
  103 |   _fatal(__FILE__, __FUNCTION__, __LINE__, fmt, ## args)
      |                    ^~~~~~~~~~~~
sim-outorder.c:1382:13: note: in expansion of macro ‘fatal’
 1382 |             fatal("bad 2-level pred config (<l1size> <l2size> <hist_size> <xor>)");
      |             ^~~~~
misc.h:106:26: note: expected ‘char *’ but argument is of type ‘const char *’
  106 | _fatal(char *file, char *func, int line, char *fmt, ...)
      |                    ~~~~~~^~~~
misc.h:103:20: warning: passing argument 2 of ‘_fatal’ discards ‘const’ qualifier from pointer target type [-Wdiscarded-qualifiers]
  103 |   _fatal(__FILE__, __FUNCTION__, __LINE__, fmt, ## args)
      |                    ^~~~~~~~~~~~
sim-outorder.c:1384:13: note: in expansion of macro ‘fatal’
 1384 |             fatal("bad bimod predictor config (<table_size>)");
      |             ^~~~~
misc.h:106:26: note: expected ‘char *’ but argument is of type ‘const char *’
  106 | _fatal(char *file, char *func, int line, char *fmt, ...)
      |                    ~~~~~~^~~~
misc.h:103:20: warning: passing argument 2 of ‘_fatal’ discards ‘const’ qualifier from pointer target type [-Wdiscarded-qualifiers]
  103 |   _fatal(__FILE__, __FUNCTION__, __LINE__, fmt, ## args)
      |                    ^~~~~~~~~~~~
sim-outorder.c:1386:13: note: in expansion of macro ‘fatal’
 1386 |             fatal("bad combining predictor config (<meta_table_size>)");
      |             ^~~~~
misc.h:106:26: note: expected ‘char *’ but argument is of type ‘const char *’
  106 | _fatal(char *file, char *func, int line, char *fmt, ...)
      |                    ~~~~~~^~~~
misc.h:103:20: warning: passing argument 2 of ‘_fatal’ discards ‘const’ qualifier from pointer target type [-Wdiscarded-qualifiers]
  103 |   _fatal(__FILE__, __FUNCTION__, __LINE__, fmt, ## args)
      |                    ^~~~~~~~~~~~
sim-outorder.c:1388:13: note: in expansion of macro ‘fatal’
 1388 |             fatal("bad btb config (<num_sets> <associativity>)");
      |             ^~~~~
misc.h:106:26: note: expected ‘char *’ but argument is of type ‘const char *’
  106 | _fatal(char *file, char *func, int line, char *fmt, ...)
      |                    ~~~~~~^~~~
misc.h:103:20: warning: passing argument 2 of ‘_fatal’ discards ‘const’ qualifier from pointer target type [-Wdiscarded-qualifiers]
  103 |   _fatal(__FILE__, __FUNCTION__, __LINE__, fmt, ## args)
      |                    ^~~~~~~~~~~~
sim-outorder.c:1402:9: note: in expansion of macro ‘fatal’
 1402 |         fatal("cannot parse load-latency predictor type `%s'", pred_type);
      |         ^~~~~
misc.h:106:26: note: expected ‘char *’ but argument is of type ‘const char *’
  106 | _fatal(char *file, char *func, int line, char *fmt, ...)
      |                    ~~~~~~^~~~
misc.h:103:20: warning: passing argument 2 of ‘_fatal’ discards ‘const’ qualifier from pointer target type [-Wdiscarded-qualifiers]
  103 |   _fatal(__FILE__, __FUNCTION__, __LINE__, fmt, ## args)
      |                    ^~~~~~~~~~~~
sim-outorder.c:1413:5: note: in expansion of macro ‘fatal’
 1413 |     fatal("bad speculative update stage specifier, use {ID|WB}");
      |     ^~~~~
misc.h:106:26: note: expected ‘char *’ but argument is of type ‘const char *’
  106 | _fatal(char *file, char *func, int line, char *fmt, ...)
      |                    ~~~~~~^~~~
misc.h:103:20: warning: passing argument 2 of ‘_fatal’ discards ‘const’ qualifier from pointer target type [-Wdiscarded-qualifiers]
  103 |   _fatal(__FILE__, __FUNCTION__, __LINE__, fmt, ## args)
      |                    ^~~~~~~~~~~~
sim-outorder.c:1416:5: note: in expansion of macro ‘fatal’
 1416 |     fatal("issue width must be positive non-zero and a power of two");
      |     ^~~~~
misc.h:106:26: note: expected ‘char *’ but argument is of type ‘const char *’
  106 | _fatal(char *file, char *func, int line, char *fmt, ...)
      |                    ~~~~~~^~~~
misc.h:103:20: warning: passing argument 2 of ‘_fatal’ discards ‘const’ qualifier from pointer target type [-Wdiscarded-qualifiers]
  103 |   _fatal(__FILE__, __FUNCTION__, __LINE__, fmt, ## args)
      |                    ^~~~~~~~~~~~
sim-outorder.c:1419:5: note: in expansion of macro ‘fatal’
 1419 |     fatal("issue width must be positive non-zero and a power of two");
      |     ^~~~~
misc.h:106:26: note: expected ‘char *’ but argument is of type ‘const char *’
  106 | _fatal(char *file, char *func, int line, char *fmt, ...)
      |                    ~~~~~~^~~~
misc.h:103:20: warning: passing argument 2 of ‘_fatal’ discards ‘const’ qualifier from pointer target type [-Wdiscarded-qualifiers]
  103 |   _fatal(__FILE__, __FUNCTION__, __LINE__, fmt, ## args)
      |                    ^~~~~~~~~~~~
sim-outorder.c:1422:5: note: in expansion of macro ‘fatal’
 1422 |     fatal("commit width must be positive non-zero");
      |     ^~~~~
misc.h:106:26: note: expected ‘char *’ but argument is of type ‘const char *’
  106 | _fatal(char *file, char *func, int line, char *fmt, ...)
      |                    ~~~~~~^~~~
misc.h:103:20: warning: passing argument 2 of ‘_fatal’ discards ‘const’ qualifier from pointer target type [-Wdiscarded-qualifiers]
  103 |   _fatal(__FILE__, __FUNCTION__, __LINE__, fmt, ## args)
      |                    ^~~~~~~~~~~~
sim-outorder.c:1425:5: note: in expansion of macro ‘fatal’
 1425 |     fatal("ROB size must be a positive number > 1");
      |     ^~~~~
misc.h:106:26: note: expected ‘char *’ but argument is of type ‘const char *’
  106 | _fatal(char *file, char *func, int line, char *fmt, ...)
      |                    ~~~~~~^~~~
misc.h:103:20: warning: passing argument 2 of ‘_fatal’ discards ‘const’ qualifier from pointer target type [-Wdiscarded-qualifiers]
  103 |   _fatal(__FILE__, __FUNCTION__, __LINE__, fmt, ## args)
      |                    ^~~~~~~~~~~~
sim-outorder.c:1428:5: note: in expansion of macro ‘fatal’
 1428 |     fatal("LSQ size must be a positive number > 1");
      |     ^~~~~
misc.h:106:26: note: expected ‘char *’ but argument is of type ‘const char *’
  106 | _fatal(char *file, char *func, int line, char *fmt, ...)
      |                    ~~~~~~^~~~
misc.h:103:20: warning: passing argument 2 of ‘_fatal’ discards ‘const’ qualifier from pointer target type [-Wdiscarded-qualifiers]
  103 |   _fatal(__FILE__, __FUNCTION__, __LINE__, fmt, ## args)
      |                    ^~~~~~~~~~~~
sim-outorder.c:1431:5: note: in expansion of macro ‘fatal’
 1431 |     fatal("IQ size must be a positive number > 1");
      |     ^~~~~
misc.h:106:26: note: expected ‘char *’ but argument is of type ‘const char *’
  106 | _fatal(char *file, char *func, int line, char *fmt, ...)
      |                    ~~~~~~^~~~
misc.h:103:20: warning: passing argument 2 of ‘_fatal’ discards ‘const’ qualifier from pointer target type [-Wdiscarded-qualifiers]
  103 |   _fatal(__FILE__, __FUNCTION__, __LINE__, fmt, ## args)
      |                    ^~~~~~~~~~~~
sim-outorder.c:1434:5: note: in expansion of macro ‘fatal’
 1434 |     fatal("RF size must be a positive number > 1");
      |     ^~~~~
misc.h:106:26: note: expected ‘char *’ but argument is of type ‘const char *’
  106 | _fatal(char *file, char *func, int line, char *fmt, ...)
      |                    ~~~~~~^~~~
misc.h:103:20: warning: passing argument 2 of ‘_fatal’ discards ‘const’ qualifier from pointer target type [-Wdiscarded-qualifiers]
  103 |   _fatal(__FILE__, __FUNCTION__, __LINE__, fmt, ## args)
      |                    ^~~~~~~~~~~~
sim-outorder.c:1441:5: note: in expansion of macro ‘fatal’
 1441 |     fatal("Must have enough registers for arch state for each thread!!");
      |     ^~~~~
misc.h:106:26: note: expected ‘char *’ but argument is of type ‘const char *’
  106 | _fatal(char *file, char *func, int line, char *fmt, ...)
      |                    ~~~~~~^~~~
misc.h:103:20: warning: passing argument 2 of ‘_fatal’ discards ‘const’ qualifier from pointer target type [-Wdiscarded-qualifiers]
  103 |   _fatal(__FILE__, __FUNCTION__, __LINE__, fmt, ## args)
      |                    ^~~~~~~~~~~~
sim-outorder.c:1450:9: note: in expansion of macro ‘fatal’
 1450 |         fatal("the l1 data cache must defined if the l2 cache is defined");
      |         ^~~~~
misc.h:106:26: note: expected ‘char *’ but argument is of type ‘const char *’
  106 | _fatal(char *file, char *func, int line, char *fmt, ...)
      |                    ~~~~~~^~~~
misc.h:103:20: warning: passing argument 2 of ‘_fatal’ discards ‘const’ qualifier from pointer target type [-Wdiscarded-qualifiers]
  103 |   _fatal(__FILE__, __FUNCTION__, __LINE__, fmt, ## args)
      |                    ^~~~~~~~~~~~
sim-outorder.c:1457:9: note: in expansion of macro ‘fatal’
 1457 |         fatal("bad l1 D-cache parms: <name>:<nsets>:<bsize>:<assoc>:<repl>");
      |         ^~~~~
misc.h:106:26: note: expected ‘char *’ but argument is of type ‘const char *’
  106 | _fatal(char *file, char *func, int line, char *fmt, ...)
      |                    ~~~~~~^~~~
misc.h:103:20: warning: passing argument 2 of ‘_fatal’ discards ‘const’ qualifier from pointer target type [-Wdiscarded-qualifiers]
  103 |   _fatal(__FILE__, __FUNCTION__, __LINE__, fmt, ## args)
      |                    ^~~~~~~~~~~~
sim-outorder.c:1469:13: note: in expansion of macro ‘fatal’
 1469 |             fatal("bad l2 D-cache parms: "
      |             ^~~~~
misc.h:106:26: note: expected ‘char *’ but argument is of type ‘const char *’
  106 | _fatal(char *file, char *func, int line, char *fmt, ...)
      |                    ~~~~~~^~~~
misc.h:103:20: warning: passing argument 2 of ‘_fatal’ discards ‘const’ qualifier from pointer target type [-Wdiscarded-qualifiers]
  103 |   _fatal(__FILE__, __FUNCTION__, __LINE__, fmt, ## args)
      |                    ^~~~~~~~~~~~
sim-outorder.c:1484:9: note: in expansion of macro ‘fatal’
 1484 |         fatal("the l1 inst cache must defined if the l2 cache is defined");
      |         ^~~~~
misc.h:106:26: note: expected ‘char *’ but argument is of type ‘const char *’
  106 | _fatal(char *file, char *func, int line, char *fmt, ...)
      |                    ~~~~~~^~~~
misc.h:103:20: warning: passing argument 2 of ‘_fatal’ discards ‘const’ qualifier from pointer target type [-Wdiscarded-qualifiers]
  103 |   _fatal(__FILE__, __FUNCTION__, __LINE__, fmt, ## args)
      |                    ^~~~~~~~~~~~
sim-outorder.c:1490:9: note: in expansion of macro ‘fatal’
 1490 |         fatal("I-cache l1 cannot access D-cache l1 as it's undefined");
      |         ^~~~~
misc.h:106:26: note: expected ‘char *’ but argument is of type ‘const char *’
  106 | _fatal(char *file, char *func, int line, char *fmt, ...)
      |                    ~~~~~~^~~~
misc.h:103:20: warning: passing argument 2 of ‘_fatal’ discards ‘const’ qualifier from pointer target type [-Wdiscarded-qualifiers]
  103 |   _fatal(__FILE__, __FUNCTION__, __LINE__, fmt, ## args)
      |                    ^~~~~~~~~~~~
sim-outorder.c:1495:9: note: in expansion of macro ‘fatal’
 1495 |         fatal("the l1 inst cache must defined if the l2 cache is defined");
      |         ^~~~~
misc.h:106:26: note: expected ‘char *’ but argument is of type ‘const char *’
  106 | _fatal(char *file, char *func, int line, char *fmt, ...)
      |                    ~~~~~~^~~~
misc.h:103:20: warning: passing argument 2 of ‘_fatal’ discards ‘const’ qualifier from pointer target type [-Wdiscarded-qualifiers]
  103 |   _fatal(__FILE__, __FUNCTION__, __LINE__, fmt, ## args)
      |                    ^~~~~~~~~~~~
sim-outorder.c:1501:9: note: in expansion of macro ‘fatal’
 1501 |         fatal("I-cache l1 cannot access D-cache l2 as it's undefined");
      |         ^~~~~
misc.h:106:26: note: expected ‘char *’ but argument is of type ‘const char *’
  106 | _fatal(char *file, char *func, int line, char *fmt, ...)
      |                    ~~~~~~^~~~
misc.h:103:20: warning: passing argument 2 of ‘_fatal’ discards ‘const’ qualifier from pointer target type [-Wdiscarded-qualifiers]
  103 |   _fatal(__FILE__, __FUNCTION__, __LINE__, fmt, ## args)
      |                    ^~~~~~~~~~~~
sim-outorder.c:1506:9: note: in expansion of macro ‘fatal’
 1506 |         fatal("the l1 inst cache must defined if the l2 cache is defined");
      |         ^~~~~
misc.h:106:26: note: expected ‘char *’ but argument is of type ‘const char *’
  106 | _fatal(char *file, char *func, int line, char *fmt, ...)
      |                    ~~~~~~^~~~
misc.h:103:20: warning: passing argument 2 of ‘_fatal’ discards ‘const’ qualifier from pointer target type [-Wdiscarded-qualifiers]
  103 |   _fatal(__FILE__, __FUNCTION__, __LINE__, fmt, ## args)
      |                    ^~~~~~~~~~~~
sim-outorder.c:1513:9: note: in expansion of macro ‘fatal’
 1513 |         fatal("bad l1 I-cache parms: <name>:<nsets>:<bsize>:<assoc>:<repl>");
      |         ^~~~~
misc.h:106:26: note: expected ‘char *’ but argument is of type ‘const char *’
  106 | _fatal(char *file, char *func, int line, char *fmt, ...)
      |                    ~~~~~~^~~~
misc.h:103:20: warning: passing argument 2 of ‘_fatal’ discards ‘const’ qualifier from pointer target type [-Wdiscarded-qualifiers]
  103 |   _fatal(__FILE__, __FUNCTION__, __LINE__, fmt, ## args)
      |                    ^~~~~~~~~~~~
sim-outorder.c:1524:13: note: in expansion of macro ‘fatal’
 1524 |             fatal("I-cache l2 cannot access D-cache l2 as it's undefined");
      |             ^~~~~
misc.h:106:26: note: expected ‘char *’ but argument is of type ‘const char *’
  106 | _fatal(char *file, char *func, int line, char *fmt, ...)
      |                    ~~~~~~^~~~
misc.h:103:20: warning: passing argument 2 of ‘_fatal’ discards ‘const’ qualifier from pointer target type [-Wdiscarded-qualifiers]
  103 |   _fatal(__FILE__, __FUNCTION__, __LINE__, fmt, ## args)
      |                    ^~~~~~~~~~~~
sim-outorder.c:1531:13: note: in expansion of macro ‘fatal’
 1531 |             fatal("bad l2 I-cache parms: "
      |             ^~~~~
misc.h:106:26: note: expected ‘char *’ but argument is of type ‘const char *’
  106 | _fatal(char *file, char *func, int line, char *fmt, ...)
      |                    ~~~~~~^~~~
misc.h:103:20: warning: passing argument 2 of ‘_fatal’ discards ‘const’ qualifier from pointer target type [-Wdiscarded-qualifiers]
  103 |   _fatal(__FILE__, __FUNCTION__, __LINE__, fmt, ## args)
      |                    ^~~~~~~~~~~~
sim-outorder.c:1546:9: note: in expansion of macro ‘fatal’
 1546 |         fatal("bad TLB parms: <name>:<nsets>:<page_size>:<assoc>:<repl>");
      |         ^~~~~
misc.h:106:26: note: expected ‘char *’ but argument is of type ‘const char *’
  106 | _fatal(char *file, char *func, int line, char *fmt, ...)
      |                    ~~~~~~^~~~
misc.h:103:20: warning: passing argument 2 of ‘_fatal’ discards ‘const’ qualifier from pointer target type [-Wdiscarded-qualifiers]
  103 |   _fatal(__FILE__, __FUNCTION__, __LINE__, fmt, ## args)
      |                    ^~~~~~~~~~~~
sim-outorder.c:1560:9: note: in expansion of macro ‘fatal’
 1560 |         fatal("bad TLB parms: <name>:<nsets>:<page_size>:<assoc>:<repl>");
      |         ^~~~~
misc.h:106:26: note: expected ‘char *’ but argument is of type ‘const char *’
  106 | _fatal(char *file, char *func, int line, char *fmt, ...)
      |                    ~~~~~~^~~~
misc.h:103:20: warning: passing argument 2 of ‘_fatal’ discards ‘const’ qualifier from pointer target type [-Wdiscarded-qualifiers]
  103 |   _fatal(__FILE__, __FUNCTION__, __LINE__, fmt, ## args)
      |                    ^~~~~~~~~~~~
sim-outorder.c:1568:5: note: in expansion of macro ‘fatal’
 1568 |     fatal("l1 data cache latency must be greater than zero");
      |     ^~~~~
misc.h:106:26: note: expected ‘char *’ but argument is of type ‘const char *’
  106 | _fatal(char *file, char *func, int line, char *fmt, ...)
      |                    ~~~~~~^~~~
misc.h:103:20: warning: passing argument 2 of ‘_fatal’ discards ‘const’ qualifier from pointer target type [-Wdiscarded-qualifiers]
  103 |   _fatal(__FILE__, __FUNCTION__, __LINE__, fmt, ## args)
      |                    ^~~~~~~~~~~~
sim-outorder.c:1571:5: note: in expansion of macro ‘fatal’
 1571 |     fatal("l2 data cache latency must be greater than zero");
      |     ^~~~~
misc.h:106:26: note: expected ‘char *’ but argument is of type ‘const char *’
  106 | _fatal(char *file, char *func, int line, char *fmt, ...)
      |                    ~~~~~~^~~~
misc.h:103:20: warning: passing argument 2 of ‘_fatal’ discards ‘const’ qualifier from pointer target type [-Wdiscarded-qualifiers]
  103 |   _fatal(__FILE__, __FUNCTION__, __LINE__, fmt, ## args)
      |                    ^~~~~~~~~~~~
sim-outorder.c:1574:5: note: in expansion of macro ‘fatal’
 1574 |     fatal("l1 instruction cache latency must be greater than zero");
      |     ^~~~~
misc.h:106:26: note: expected ‘char *’ but argument is of type ‘const char *’
  106 | _fatal(char *file, char *func, int line, char *fmt, ...)
      |                    ~~~~~~^~~~
misc.h:103:20: warning: passing argument 2 of ‘_fatal’ discards ‘const’ qualifier from pointer target type [-Wdiscarded-qualifiers]
  103 |   _fatal(__FILE__, __FUNCTION__, __LINE__, fmt, ## args)
      |                    ^~~~~~~~~~~~
sim-outorder.c:1577:5: note: in expansion of macro ‘fatal’
 1577 |     fatal("l2 instruction cache latency must be greater than zero");
      |     ^~~~~
misc.h:106:26: note: expected ‘char *’ but argument is of type ‘const char *’
  106 | _fatal(char *file, char *func, int line, char *fmt, ...)
      |                    ~~~~~~^~~~
misc.h:103:20: warning: passing argument 2 of ‘_fatal’ discards ‘const’ qualifier from pointer target type [-Wdiscarded-qualifiers]
  103 |   _fatal(__FILE__, __FUNCTION__, __LINE__, fmt, ## args)
      |                    ^~~~~~~~~~~~
sim-outorder.c:1580:5: note: in expansion of macro ‘fatal’
 1580 |     fatal("bad memory access latency (<first_chunk> <inter_chunk>)");
      |     ^~~~~
misc.h:106:26: note: expected ‘char *’ but argument is of type ‘const char *’
  106 | _fatal(char *file, char *func, int line, char *fmt, ...)
      |                    ~~~~~~^~~~
misc.h:103:20: warning: passing argument 2 of ‘_fatal’ discards ‘const’ qualifier from pointer target type [-Wdiscarded-qualifiers]
  103 |   _fatal(__FILE__, __FUNCTION__, __LINE__, fmt, ## args)
      |                    ^~~~~~~~~~~~
sim-outorder.c:1583:5: note: in expansion of macro ‘fatal’
 1583 |     fatal("all memory access latencies must be greater than zero");
      |     ^~~~~
misc.h:106:26: note: expected ‘char *’ but argument is of type ‘const char *’
  106 | _fatal(char *file, char *func, int line, char *fmt, ...)
      |                    ~~~~~~^~~~
misc.h:103:20: warning: passing argument 2 of ‘_fatal’ discards ‘const’ qualifier from pointer target type [-Wdiscarded-qualifiers]
  103 |   _fatal(__FILE__, __FUNCTION__, __LINE__, fmt, ## args)
      |                    ^~~~~~~~~~~~
sim-outorder.c:1586:5: note: in expansion of macro ‘fatal’
 1586 |     fatal("memory bus width must be positive non-zero and a power of two");
      |     ^~~~~
misc.h:106:26: note: expected ‘char *’ but argument is of type ‘const char *’
  106 | _fatal(char *file, char *func, int line, char *fmt, ...)
      |                    ~~~~~~^~~~
misc.h:103:20: warning: passing argument 2 of ‘_fatal’ discards ‘const’ qualifier from pointer target type [-Wdiscarded-qualifiers]
  103 |   _fatal(__FILE__, __FUNCTION__, __LINE__, fmt, ## args)
      |                    ^~~~~~~~~~~~
sim-outorder.c:1589:5: note: in expansion of macro ‘fatal’
 1589 |     fatal("TLB miss latency must be greater than zero");
      |     ^~~~~
misc.h:106:26: note: expected ‘char *’ but argument is of type ‘const char *’
  106 | _fatal(char *file, char *func, int line, char *fmt, ...)
      |                    ~~~~~~^~~~
misc.h:103:20: warning: passing argument 2 of ‘_fatal’ discards ‘const’ qualifier from pointer target type [-Wdiscarded-qualifiers]
  103 |   _fatal(__FILE__, __FUNCTION__, __LINE__, fmt, ## args)
      |                    ^~~~~~~~~~~~
sim-outorder.c:1592:5: note: in expansion of macro ‘fatal’
 1592 |     fatal("number of integer ALU's must be greater than zero");
      |     ^~~~~
misc.h:106:26: note: expected ‘char *’ but argument is of type ‘const char *’
  106 | _fatal(char *file, char *func, int line, char *fmt, ...)
      |                    ~~~~~~^~~~
misc.h:103:20: warning: passing argument 2 of ‘_fatal’ discards ‘const’ qualifier from pointer target type [-Wdiscarded-qualifiers]
  103 |   _fatal(__FILE__, __FUNCTION__, __LINE__, fmt, ## args)
      |                    ^~~~~~~~~~~~
sim-outorder.c:1594:5: note: in expansion of macro ‘fatal’
 1594 |     fatal("number of integer ALU's must be <= MAX_INSTS_PER_CLASS");
      |     ^~~~~
misc.h:106:26: note: expected ‘char *’ but argument is of type ‘const char *’
  106 | _fatal(char *file, char *func, int line, char *fmt, ...)
      |                    ~~~~~~^~~~
misc.h:103:20: warning: passing argument 2 of ‘_fatal’ discards ‘const’ qualifier from pointer target type [-Wdiscarded-qualifiers]
  103 |   _fatal(__FILE__, __FUNCTION__, __LINE__, fmt, ## args)
      |                    ^~~~~~~~~~~~
sim-outorder.c:1598:5: note: in expansion of macro ‘fatal’
 1598 |     fatal("number of integer multiplier/dividers must be greater than zero");
      |     ^~~~~
misc.h:106:26: note: expected ‘char *’ but argument is of type ‘const char *’
  106 | _fatal(char *file, char *func, int line, char *fmt, ...)
      |                    ~~~~~~^~~~
misc.h:103:20: warning: passing argument 2 of ‘_fatal’ discards ‘const’ qualifier from pointer target type [-Wdiscarded-qualifiers]
  103 |   _fatal(__FILE__, __FUNCTION__, __LINE__, fmt, ## args)
      |                    ^~~~~~~~~~~~
sim-outorder.c:1600:5: note: in expansion of macro ‘fatal’
 1600 |     fatal("number of integer mult/div's must be <= MAX_INSTS_PER_CLASS");
      |     ^~~~~
misc.h:106:26: note: expected ‘char *’ but argument is of type ‘const char *’
  106 | _fatal(char *file, char *func, int line, char *fmt, ...)
      |                    ~~~~~~^~~~
misc.h:103:20: warning: passing argument 2 of ‘_fatal’ discards ‘const’ qualifier from pointer target type [-Wdiscarded-qualifiers]
  103 |   _fatal(__FILE__, __FUNCTION__, __LINE__, fmt, ## args)
      |                    ^~~~~~~~~~~~
sim-outorder.c:1604:5: note: in expansion of macro ‘fatal’
 1604 |     fatal("number of memory system ports must be greater than zero");
      |     ^~~~~
misc.h:106:26: note: expected ‘char *’ but argument is of type ‘const char *’
  106 | _fatal(char *file, char *func, int line, char *fmt, ...)
      |                    ~~~~~~^~~~
misc.h:103:20: warning: passing argument 2 of ‘_fatal’ discards ‘const’ qualifier from pointer target type [-Wdiscarded-qualifiers]
  103 |   _fatal(__FILE__, __FUNCTION__, __LINE__, fmt, ## args)
      |                    ^~~~~~~~~~~~
sim-outorder.c:1606:5: note: in expansion of macro ‘fatal’
 1606 |     fatal("number of memory system ports must be <= MAX_INSTS_PER_CLASS");
      |     ^~~~~
misc.h:106:26: note: expected ‘char *’ but argument is of type ‘const char *’
  106 | _fatal(char *file, char *func, int line, char *fmt, ...)
      |                    ~~~~~~^~~~
misc.h:103:20: warning: passing argument 2 of ‘_fatal’ discards ‘const’ qualifier from pointer target type [-Wdiscarded-qualifiers]
  103 |   _fatal(__FILE__, __FUNCTION__, __LINE__, fmt, ## args)
      |                    ^~~~~~~~~~~~
sim-outorder.c:1610:5: note: in expansion of macro ‘fatal’
 1610 |     fatal("number of floating point ALU's must be greater than zero");
      |     ^~~~~
misc.h:106:26: note: expected ‘char *’ but argument is of type ‘const char *’
  106 | _fatal(char *file, char *func, int line, char *fmt, ...)
      |                    ~~~~~~^~~~
misc.h:103:20: warning: passing argument 2 of ‘_fatal’ discards ‘const’ qualifier from pointer target type [-Wdiscarded-qualifiers]
  103 |   _fatal(__FILE__, __FUNCTION__, __LINE__, fmt, ## args)
      |                    ^~~~~~~~~~~~
sim-outorder.c:1612:5: note: in expansion of macro ‘fatal’
 1612 |     fatal("number of floating point ALU's must be <= MAX_INSTS_PER_CLASS");
      |     ^~~~~
misc.h:106:26: note: expected ‘char *’ but argument is of type ‘const char *’
  106 | _fatal(char *file, char *func, int line, char *fmt, ...)
      |                    ~~~~~~^~~~
misc.h:103:20: warning: passing argument 2 of ‘_fatal’ discards ‘const’ qualifier from pointer target type [-Wdiscarded-qualifiers]
  103 |   _fatal(__FILE__, __FUNCTION__, __LINE__, fmt, ## args)
      |                    ^~~~~~~~~~~~
sim-outorder.c:1616:5: note: in expansion of macro ‘fatal’
 1616 |     fatal("number of floating point multiplier/dividers must be > zero");
      |     ^~~~~
misc.h:106:26: note: expected ‘char *’ but argument is of type ‘const char *’
  106 | _fatal(char *file, char *func, int line, char *fmt, ...)
      |                    ~~~~~~^~~~
misc.h:103:20: warning: passing argument 2 of ‘_fatal’ discards ‘const’ qualifier from pointer target type [-Wdiscarded-qualifiers]
  103 |   _fatal(__FILE__, __FUNCTION__, __LINE__, fmt, ## args)
      |                    ^~~~~~~~~~~~
sim-outorder.c:1618:5: note: in expansion of macro ‘fatal’
 1618 |     fatal("number of FP mult/div's must be <= MAX_INSTS_PER_CLASS");
      |     ^~~~~
misc.h:106:26: note: expected ‘char *’ but argument is of type ‘const char *’
  106 | _fatal(char *file, char *func, int line, char *fmt, ...)
      |                    ~~~~~~^~~~
sim-outorder.c: In function ‘sim_reg_stats’:
misc.h:116:20: warning: passing argument 2 of ‘_panic’ discards ‘const’ qualifier from pointer target type [-Wdiscarded-qualifiers]
  116 |   _panic(__FILE__, __FUNCTION__, __LINE__, fmt, ## args)
      |                    ^~~~~~~~~~~~
sim-outorder.c:1728:11: note: in expansion of macro ‘panic’
 1728 |           panic("bogus branch predictor class");
      |           ^~~~~
misc.h:119:26: note: expected ‘char *’ but argument is of type ‘const char *’
  119 | _panic(char *file, char *func, int line, char *fmt, ...)
      |                    ~~~~~~^~~~
misc.h:116:20: warning: passing argument 2 of ‘_panic’ discards ‘const’ qualifier from pointer target type [-Wdiscarded-qualifiers]
  116 |   _panic(__FILE__, __FUNCTION__, __LINE__, fmt, ## args)
      |                    ^~~~~~~~~~~~
sim-outorder.c:1761:11: note: in expansion of macro ‘panic’
 1761 |           panic("bogus load-latency predictor class");
      |           ^~~~~
misc.h:119:26: note: expected ‘char *’ but argument is of type ‘const char *’
  119 | _panic(char *file, char *func, int line, char *fmt, ...)
      |                    ~~~~~~^~~~
misc.h:103:20: warning: passing argument 2 of ‘_fatal’ discards ‘const’ qualifier from pointer target type [-Wdiscarded-qualifiers]
  103 |   _fatal(__FILE__, __FUNCTION__, __LINE__, fmt, ## args)
      |                    ^~~~~~~~~~~~
sim-outorder.c:1804:9: note: in expansion of macro ‘fatal’
 1804 |         fatal("cannot locate any statistic named `%s'", pcstat_vars[i]);
      |         ^~~~~
misc.h:106:26: note: expected ‘char *’ but argument is of type ‘const char *’
  106 | _fatal(char *file, char *func, int line, char *fmt, ...)
      |                    ~~~~~~^~~~
misc.h:103:20: warning: passing argument 2 of ‘_fatal’ discards ‘const’ qualifier from pointer target type [-Wdiscarded-qualifiers]
  103 |   _fatal(__FILE__, __FUNCTION__, __LINE__, fmt, ## args)
      |                    ^~~~~~~~~~~~
sim-outorder.c:1808:9: note: in expansion of macro ‘fatal’
 1808 |         fatal("`-pcstat' statistical variable `%s' is not an integral type",
      |         ^~~~~
misc.h:106:26: note: expected ‘char *’ but argument is of type ‘const char *’
  106 | _fatal(char *file, char *func, int line, char *fmt, ...)
      |                    ~~~~~~^~~~
misc.h:116:20: warning: passing argument 2 of ‘_panic’ discards ‘const’ qualifier from pointer target type [-Wdiscarded-qualifiers]
  116 |   _panic(__FILE__, __FUNCTION__, __LINE__, fmt, ## args)
      |                    ^~~~~~~~~~~~
sim-outorder.c:663:13: note: in expansion of macro ‘panic’
  663 |          : (panic("bad stat class"), 0))))
      |             ^~~~~
sim-outorder.c:1813:28: note: in expansion of macro ‘STATVAL’
 1813 |       pcstat_lastvals[i] = STATVAL(stat);
      |                            ^~~~~~~
misc.h:119:26: note: expected ‘char *’ but argument is of type ‘const char *’
  119 | _panic(char *file, char *func, int line, char *fmt, ...)
      |                    ~~~~~~^~~~
sim-outorder.c: In function ‘sim_load_prog’:
misc.h:103:20: warning: passing argument 2 of ‘_fatal’ discards ‘const’ qualifier from pointer target type [-Wdiscarded-qualifiers]
  103 |   _fatal(__FILE__, __FUNCTION__, __LINE__, fmt, ## args)
      |                    ^~~~~~~~~~~~
sim-outorder.c:1921:5: note: in expansion of macro ‘fatal’
 1921 |     fatal("bad pipetrace args, use: <fname|stdout|stderr> <range>");
      |     ^~~~~
misc.h:106:26: note: expected ‘char *’ but argument is of type ‘const char *’
  106 | _fatal(char *file, char *func, int line, char *fmt, ...)
      |                    ~~~~~~^~~~
sim-outorder.c: In function ‘rob_init’:
misc.h:103:20: warning: passing argument 2 of ‘_fatal’ discards ‘const’ qualifier from pointer target type [-Wdiscarded-qualifiers]
  103 |   _fatal(__FILE__, __FUNCTION__, __LINE__, fmt, ## args)
      |                    ^~~~~~~~~~~~
sim-outorder.c:2100:5: note: in expansion of macro ‘fatal’
 2100 |     fatal("out of virtual memory");
      |     ^~~~~
misc.h:106:26: note: expected ‘char *’ but argument is of type ‘const char *’
  106 | _fatal(char *file, char *func, int line, char *fmt, ...)
      |                    ~~~~~~^~~~
sim-outorder.c: In function ‘lsq_init’:
misc.h:103:20: warning: passing argument 2 of ‘_fatal’ discards ‘const’ qualifier from pointer target type [-Wdiscarded-qualifiers]
  103 |   _fatal(__FILE__, __FUNCTION__, __LINE__, fmt, ## args)
      |                    ^~~~~~~~~~~~
sim-outorder.c:2189:5: note: in expansion of macro ‘fatal’
 2189 |     fatal("out of virtual memory");
      |     ^~~~~
misc.h:106:26: note: expected ‘char *’ but argument is of type ‘const char *’
  106 | _fatal(char *file, char *func, int line, char *fmt, ...)
      |                    ~~~~~~^~~~
sim-outorder.c: In function ‘rslink_init’:
misc.h:103:20: warning: passing argument 2 of ‘_fatal’ discards ‘const’ qualifier from pointer target type [-Wdiscarded-qualifiers]
  103 |   _fatal(__FILE__, __FUNCTION__, __LINE__, fmt, ## args)
      |                    ^~~~~~~~~~~~
sim-outorder.c:2306:9: note: in expansion of macro ‘fatal’
 2306 |         fatal("out of virtual memory");
      |         ^~~~~
misc.h:106:26: note: expected ‘char *’ but argument is of type ‘const char *’
  106 | _fatal(char *file, char *func, int line, char *fmt, ...)
      |                    ~~~~~~^~~~
sim-outorder.c: In function ‘eventq_queue_event’:
misc.h:116:20: warning: passing argument 2 of ‘_panic’ discards ‘const’ qualifier from pointer target type [-Wdiscarded-qualifiers]
  116 |   _panic(__FILE__, __FUNCTION__, __LINE__, fmt, ## args)
      |                    ^~~~~~~~~~~~
sim-outorder.c:2384:5: note: in expansion of macro ‘panic’
 2384 |     panic("event completed");
      |     ^~~~~
misc.h:119:26: note: expected ‘char *’ but argument is of type ‘const char *’
  119 | _panic(char *file, char *func, int line, char *fmt, ...)
      |                    ~~~~~~^~~~
misc.h:116:20: warning: passing argument 2 of ‘_panic’ discards ‘const’ qualifier from pointer target type [-Wdiscarded-qualifiers]
  116 |   _panic(__FILE__, __FUNCTION__, __LINE__, fmt, ## args)
      |                    ^~~~~~~~~~~~
sim-outorder.c:2387:5: note: in expansion of macro ‘panic’
 2387 |     panic("event occurred in the past");
      |     ^~~~~
misc.h:119:26: note: expected ‘char *’ but argument is of type ‘const char *’
  119 | _panic(char *file, char *func, int line, char *fmt, ...)
      |                    ~~~~~~^~~~
misc.h:116:20: warning: passing argument 2 of ‘_panic’ discards ‘const’ qualifier from pointer target type [-Wdiscarded-qualifiers]
  116 |   _panic(__FILE__, __FUNCTION__, __LINE__, fmt, ## args)
      |                    ^~~~~~~~~~~~
sim-outorder.c:2267:7: note: in expansion of macro ‘panic’
 2267 |       panic("out of rs links");                                         \
      |       ^~~~~
sim-outorder.c:2390:3: note: in expansion of macro ‘RSLINK_NEW’
 2390 |   RSLINK_NEW(new_ev, rs);
      |   ^~~~~~~~~~
misc.h:119:26: note: expected ‘char *’ but argument is of type ‘const char *’
  119 | _panic(char *file, char *func, int line, char *fmt, ...)
      |                    ~~~~~~^~~~
sim-outorder.c: In function ‘issue_exec_q_queue_event’:
misc.h:116:20: warning: passing argument 2 of ‘_panic’ discards ‘const’ qualifier from pointer target type [-Wdiscarded-qualifiers]
  116 |   _panic(__FILE__, __FUNCTION__, __LINE__, fmt, ## args)
      |                    ^~~~~~~~~~~~
sim-outorder.c:2472:5: note: in expansion of macro ‘panic’
 2472 |     panic("instruction completed");
      |     ^~~~~
misc.h:119:26: note: expected ‘char *’ but argument is of type ‘const char *’
  119 | _panic(char *file, char *func, int line, char *fmt, ...)
      |                    ~~~~~~^~~~
misc.h:116:20: warning: passing argument 2 of ‘_panic’ discards ‘const’ qualifier from pointer target type [-Wdiscarded-qualifiers]
  116 |   _panic(__FILE__, __FUNCTION__, __LINE__, fmt, ## args)
      |                    ^~~~~~~~~~~~
sim-outorder.c:2477:5: note: in expansion of macro ‘panic’
 2477 |     panic("event occurred in the past");
      |     ^~~~~
misc.h:119:26: note: expected ‘char *’ but argument is of type ‘const char *’
  119 | _panic(char *file, char *func, int line, char *fmt, ...)
      |                    ~~~~~~^~~~
misc.h:116:20: warning: passing argument 2 of ‘_panic’ discards ‘const’ qualifier from pointer target type [-Wdiscarded-qualifiers]
  116 |   _panic(__FILE__, __FUNCTION__, __LINE__, fmt, ## args)
      |                    ^~~~~~~~~~~~
sim-outorder.c:2267:7: note: in expansion of macro ‘panic’
 2267 |       panic("out of rs links");                                         \
      |       ^~~~~
sim-outorder.c:2480:3: note: in expansion of macro ‘RSLINK_NEW’
 2480 |   RSLINK_NEW(new_ev, rs);
      |   ^~~~~~~~~~
misc.h:119:26: note: expected ‘char *’ but argument is of type ‘const char *’
  119 | _panic(char *file, char *func, int line, char *fmt, ...)
      |                    ~~~~~~^~~~
sim-outorder.c: In function ‘wait_q_enqueue’:
misc.h:116:20: warning: passing argument 2 of ‘_panic’ discards ‘const’ qualifier from pointer target type [-Wdiscarded-qualifiers]
  116 |   _panic(__FILE__, __FUNCTION__, __LINE__, fmt, ## args)
      |                    ^~~~~~~~~~~~
sim-outorder.c:2562:5: note: in expansion of macro ‘panic’
 2562 |     panic("instruction completed");
      |     ^~~~~
misc.h:119:26: note: expected ‘char *’ but argument is of type ‘const char *’
  119 | _panic(char *file, char *func, int line, char *fmt, ...)
      |                    ~~~~~~^~~~
misc.h:116:20: warning: passing argument 2 of ‘_panic’ discards ‘const’ qualifier from pointer target type [-Wdiscarded-qualifiers]
  116 |   _panic(__FILE__, __FUNCTION__, __LINE__, fmt, ## args)
      |                    ^~~~~~~~~~~~
sim-outorder.c:2567:5: note: in expansion of macro ‘panic’
 2567 |     panic("event occurred in the past");
      |     ^~~~~
misc.h:119:26: note: expected ‘char *’ but argument is of type ‘const char *’
  119 | _panic(char *file, char *func, int line, char *fmt, ...)
      |                    ~~~~~~^~~~
misc.h:116:20: warning: passing argument 2 of ‘_panic’ discards ‘const’ qualifier from pointer target type [-Wdiscarded-qualifiers]
  116 |   _panic(__FILE__, __FUNCTION__, __LINE__, fmt, ## args)
      |                    ^~~~~~~~~~~~
sim-outorder.c:2267:7: note: in expansion of macro ‘panic’
 2267 |       panic("out of rs links");                                         \
      |       ^~~~~
sim-outorder.c:2570:3: note: in expansion of macro ‘RSLINK_NEW’
 2570 |   RSLINK_NEW(new_ev, rs);
      |   ^~~~~~~~~~
misc.h:119:26: note: expected ‘char *’ but argument is of type ‘const char *’
  119 | _panic(char *file, char *func, int line, char *fmt, ...)
      |                    ~~~~~~^~~~
sim-outorder.c: In function ‘readyq_enqueue’:
misc.h:116:20: warning: passing argument 2 of ‘_panic’ discards ‘const’ qualifier from pointer target type [-Wdiscarded-qualifiers]
  116 |   _panic(__FILE__, __FUNCTION__, __LINE__, fmt, ## args)
      |                    ^~~~~~~~~~~~
sim-outorder.c:2658:5: note: in expansion of macro ‘panic’
 2658 |     panic("node is already queued");
      |     ^~~~~
misc.h:119:26: note: expected ‘char *’ but argument is of type ‘const char *’
  119 | _panic(char *file, char *func, int line, char *fmt, ...)
      |                    ~~~~~~^~~~
misc.h:116:20: warning: passing argument 2 of ‘_panic’ discards ‘const’ qualifier from pointer target type [-Wdiscarded-qualifiers]
  116 |   _panic(__FILE__, __FUNCTION__, __LINE__, fmt, ## args)
      |                    ^~~~~~~~~~~~
sim-outorder.c:2267:7: note: in expansion of macro ‘panic’
 2267 |       panic("out of rs links");                                         \
      |       ^~~~~
sim-outorder.c:2666:3: note: in expansion of macro ‘RSLINK_NEW’
 2666 |   RSLINK_NEW(new_node, rs);
      |   ^~~~~~~~~~
misc.h:119:26: note: expected ‘char *’ but argument is of type ‘const char *’
  119 | _panic(char *file, char *func, int line, char *fmt, ...)
      |                    ~~~~~~^~~~
sim-outorder.c: In function ‘commit’:
misc.h:116:20: warning: passing argument 2 of ‘_panic’ discards ‘const’ qualifier from pointer target type [-Wdiscarded-qualifiers]
  116 |   _panic(__FILE__, __FUNCTION__, __LINE__, fmt, ## args)
      |                    ^~~~~~~~~~~~
sim-outorder.c:2736:13: note: in expansion of macro ‘panic’
 2736 |             panic("ROB out of sync with LSQ");
      |             ^~~~~
misc.h:119:26: note: expected ‘char *’ but argument is of type ‘const char *’
  119 | _panic(char *file, char *func, int line, char *fmt, ...)
      |                    ~~~~~~^~~~
misc.h:116:20: warning: passing argument 2 of ‘_panic’ discards ‘const’ qualifier from pointer target type [-Wdiscarded-qualifiers]
  116 |   _panic(__FILE__, __FUNCTION__, __LINE__, fmt, ## args)
      |                    ^~~~~~~~~~~~
sim-outorder.c:2766:21: note: in expansion of macro ‘panic’
 2766 |                     panic("functional unit already in use");
      |                     ^~~~~
misc.h:119:26: note: expected ‘char *’ but argument is of type ‘const char *’
  119 | _panic(char *file, char *func, int line, char *fmt, ...)
      |                    ~~~~~~^~~~
sim-outorder.c: In function ‘rob_recover’:
misc.h:116:20: warning: passing argument 2 of ‘_panic’ discards ‘const’ qualifier from pointer target type [-Wdiscarded-qualifiers]
  116 |   _panic(__FILE__, __FUNCTION__, __LINE__, fmt, ## args)
      |                    ^~~~~~~~~~~~
sim-outorder.c:2929:9: note: in expansion of macro ‘panic’
 2929 |         panic("empty ROB");
      |         ^~~~~
misc.h:119:26: note: expected ‘char *’ but argument is of type ‘const char *’
  119 | _panic(char *file, char *func, int line, char *fmt, ...)
      |                    ~~~~~~^~~~
misc.h:116:20: warning: passing argument 2 of ‘_panic’ discards ‘const’ qualifier from pointer target type [-Wdiscarded-qualifiers]
  116 |   _panic(__FILE__, __FUNCTION__, __LINE__, fmt, ## args)
      |                    ^~~~~~~~~~~~
sim-outorder.c:2933:9: note: in expansion of macro ‘panic’
 2933 |         panic("ROB head and tail broken");
      |         ^~~~~
misc.h:119:26: note: expected ‘char *’ but argument is of type ‘const char *’
  119 | _panic(char *file, char *func, int line, char *fmt, ...)
      |                    ~~~~~~^~~~
misc.h:116:20: warning: passing argument 2 of ‘_panic’ discards ‘const’ qualifier from pointer target type [-Wdiscarded-qualifiers]
  116 |   _panic(__FILE__, __FUNCTION__, __LINE__, fmt, ## args)
      |                    ^~~~~~~~~~~~
sim-outorder.c:2940:13: note: in expansion of macro ‘panic’
 2940 |             panic("ROB and LSQ out of sync");
      |             ^~~~~
misc.h:119:26: note: expected ‘char *’ but argument is of type ‘const char *’
  119 | _panic(char *file, char *func, int line, char *fmt, ...)
      |                    ~~~~~~^~~~
sim-outorder.c: In function ‘writeback’:
misc.h:116:20: warning: passing argument 2 of ‘_panic’ discards ‘const’ qualifier from pointer target type [-Wdiscarded-qualifiers]
  116 |   _panic(__FILE__, __FUNCTION__, __LINE__, fmt, ## args)
      |                    ^~~~~~~~~~~~
sim-outorder.c:3027:9: note: in expansion of macro ‘panic’
 3027 |         panic("inst completed and !ready, !issued, or completed");
      |         ^~~~~
misc.h:119:26: note: expected ‘char *’ but argument is of type ‘const char *’
  119 | _panic(char *file, char *func, int line, char *fmt, ...)
      |                    ~~~~~~^~~~
misc.h:116:20: warning: passing argument 2 of ‘_panic’ discards ‘const’ qualifier from pointer target type [-Wdiscarded-qualifiers]
  116 |   _panic(__FILE__, __FUNCTION__, __LINE__, fmt, ## args)
      |                    ^~~~~~~~~~~~
sim-outorder.c:3087:13: note: in expansion of macro ‘panic’
 3087 |             panic("mis-predicted load or store?!?!?");
      |             ^~~~~
misc.h:119:26: note: expected ‘char *’ but argument is of type ‘const char *’
  119 | _panic(char *file, char *func, int line, char *fmt, ...)
      |                    ~~~~~~^~~~
sim-outorder.c: In function ‘lsq_refresh’:
misc.h:103:20: warning: passing argument 2 of ‘_fatal’ discards ‘const’ qualifier from pointer target type [-Wdiscarded-qualifiers]
  103 |   _fatal(__FILE__, __FUNCTION__, __LINE__, fmt, ## args)
      |                    ^~~~~~~~~~~~
sim-outorder.c:3167:17: note: in expansion of macro ‘fatal’
 3167 |                 fatal("STD unknown array overflow, increase MAX_STD_UNKNOWNS");
      |                 ^~~~~
misc.h:106:26: note: expected ‘char *’ but argument is of type ‘const char *’
  106 | _fatal(char *file, char *func, int line, char *fmt, ...)
      |                    ~~~~~~^~~~
sim-outorder.c: In function ‘selection’:
misc.h:116:20: warning: passing argument 2 of ‘_panic’ discards ‘const’ qualifier from pointer target type [-Wdiscarded-qualifiers]
  116 |   _panic(__FILE__, __FUNCTION__, __LINE__, fmt, ## args)
      |                    ^~~~~~~~~~~~
sim-outorder.c:3556:13: note: in expansion of macro ‘panic’
 3556 |             panic("issued inst !ready, issued, or completed");
      |             ^~~~~
misc.h:119:26: note: expected ‘char *’ but argument is of type ‘const char *’
  119 | _panic(char *file, char *func, int line, char *fmt, ...)
      |                    ~~~~~~^~~~
misc.h:116:20: warning: passing argument 2 of ‘_panic’ discards ‘const’ qualifier from pointer target type [-Wdiscarded-qualifiers]
  116 |   _panic(__FILE__, __FUNCTION__, __LINE__, fmt, ## args)
      |                    ^~~~~~~~~~~~
sim-outorder.c:3575:17: note: in expansion of macro ‘panic’
 3575 |                 panic("store creates result");
      |                 ^~~~~
misc.h:119:26: note: expected ‘char *’ but argument is of type ‘const char *’
  119 | _panic(char *file, char *func, int line, char *fmt, ...)
      |                    ~~~~~~^~~~
misc.h:116:20: warning: passing argument 2 of ‘_panic’ discards ‘const’ qualifier from pointer target type [-Wdiscarded-qualifiers]
  116 |   _panic(__FILE__, __FUNCTION__, __LINE__, fmt, ## args)
      |                    ^~~~~~~~~~~~
sim-outorder.c:3578:17: note: in expansion of macro ‘panic’
 3578 |                 panic("mis-predicted store");
      |                 ^~~~~
misc.h:119:26: note: expected ‘char *’ but argument is of type ‘const char *’
  119 | _panic(char *file, char *func, int line, char *fmt, ...)
      |                    ~~~~~~^~~~
misc.h:116:20: warning: passing argument 2 of ‘_panic’ discards ‘const’ qualifier from pointer target type [-Wdiscarded-qualifiers]
  116 |   _panic(__FILE__, __FUNCTION__, __LINE__, fmt, ## args)
      |                    ^~~~~~~~~~~~
sim-outorder.c:3609:25: note: in expansion of macro ‘panic’
 3609 |                         panic("functional unit already in use");
      |                         ^~~~~
misc.h:119:26: note: expected ‘char *’ but argument is of type ‘const char *’
  119 | _panic(char *file, char *func, int line, char *fmt, ...)
      |                    ~~~~~~^~~~
sim-outorder.c: In function ‘tracer_recover’:
misc.h:116:20: warning: passing argument 2 of ‘_panic’ discards ‘const’ qualifier from pointer target type [-Wdiscarded-qualifiers]
  116 |   _panic(__FILE__, __FUNCTION__, __LINE__, fmt, ## args)
      |                    ^~~~~~~~~~~~
sim-outorder.c:4034:5: note: in expansion of macro ‘panic’
 4034 |     panic("cannot recover unless in speculative mode");
      |     ^~~~~
misc.h:119:26: note: expected ‘char *’ but argument is of type ‘const char *’
  119 | _panic(char *file, char *func, int line, char *fmt, ...)
      |                    ~~~~~~^~~~
sim-outorder.c: In function ‘spec_mem_access’:
misc.h:103:20: warning: passing argument 2 of ‘_fatal’ discards ‘const’ qualifier from pointer target type [-Wdiscarded-qualifiers]
  103 |   _fatal(__FILE__, __FUNCTION__, __LINE__, fmt, ## args)
      |                    ^~~~~~~~~~~~
sim-outorder.c:4176:13: note: in expansion of macro ‘fatal’
 4176 |             fatal("out of virtual memory");
      |             ^~~~~
misc.h:106:26: note: expected ‘char *’ but argument is of type ‘const char *’
  106 | _fatal(char *file, char *func, int line, char *fmt, ...)
      |                    ~~~~~~^~~~
misc.h:116:20: warning: passing argument 2 of ‘_panic’ discards ‘const’ qualifier from pointer target type [-Wdiscarded-qualifiers]
  116 |   _panic(__FILE__, __FUNCTION__, __LINE__, fmt, ## args)
      |                    ^~~~~~~~~~~~
sim-outorder.c:4280:7: note: in expansion of macro ‘panic’
 4280 |       panic("access size not supported in mis-speculative mode");
      |       ^~~~~
misc.h:119:26: note: expected ‘char *’ but argument is of type ‘const char *’
  119 | _panic(char *file, char *func, int line, char *fmt, ...)
      |                    ~~~~~~^~~~
sim-outorder.c: In function ‘simoo_reg_obj’:
misc.h:116:20: warning: passing argument 2 of ‘_panic’ discards ‘const’ qualifier from pointer target type [-Wdiscarded-qualifiers]
  116 |   _panic(__FILE__, __FUNCTION__, __LINE__, fmt, ## args)
      |                    ^~~~~~~~~~~~
sim-outorder.c:4604:7: note: in expansion of macro ‘panic’
 4604 |       panic("bogus register bank");
      |       ^~~~~
misc.h:119:26: note: expected ‘char *’ but argument is of type ‘const char *’
  119 | _panic(char *file, char *func, int line, char *fmt, ...)
      |                    ~~~~~~^~~~
machine.def: In function ‘register_rename’:
misc.h:116:20: warning: passing argument 2 of ‘_panic’ discards ‘const’ qualifier from pointer target type [-Wdiscarded-qualifiers]
  116 |   _panic(__FILE__, __FUNCTION__, __LINE__, fmt, ## args)
      |                    ^~~~~~~~~~~~
sim-outorder.c:4484:17: note: in expansion of macro ‘panic’
 4484 |    (spec_mode ? panic("speculative syscall") : (void) 0),               \
      |                 ^~~~~
machine.def:775:5: note: in expansion of macro ‘SYSCALL’
  775 |     SYSCALL(inst);                                                      \
      |     ^~~~~~~
host.h:71:25: note: in expansion of macro ‘PAL_CALLSYS_IMPL’
   71 | #define SYMCAT(X,Y)     X##Y
      |                         ^
sim-outorder.c:5228:11: note: in expansion of macro ‘SYMCAT’
 5228 |           SYMCAT(OP,_IMPL);                                             \
      |           ^~~~~~
machine.def:777:1: note: in expansion of macro ‘DEFINST’
  777 | DEFINST(PAL_CALLSYS,            0x83,
      | ^~~~~~~
misc.h:119:26: note: expected ‘char *’ but argument is of type ‘const char *’
  119 | _panic(char *file, char *func, int line, char *fmt, ...)
      |                    ~~~~~~^~~~
misc.h:103:20: warning: passing argument 2 of ‘_fatal’ discards ‘const’ qualifier from pointer target type [-Wdiscarded-qualifiers]
  103 |   _fatal(__FILE__, __FUNCTION__, __LINE__, fmt, ## args)
      |                    ^~~~~~~~~~~~
sim-outorder.c:5275:11: note: in expansion of macro ‘fatal’
 5275 |           fatal("non-speculative fault (%d) detected @ %d:0x%08p spec_mode: %d cxt.spec_mode %d",
      |           ^~~~~
misc.h:106:26: note: expected ‘char *’ but argument is of type ‘const char *’
  106 | _fatal(char *file, char *func, int line, char *fmt, ...)
      |                    ~~~~~~^~~~
misc.h:116:20: warning: passing argument 2 of ‘_panic’ discards ‘const’ qualifier from pointer target type [-Wdiscarded-qualifiers]
  116 |   _panic(__FILE__, __FUNCTION__, __LINE__, fmt, ## args)
      |                    ^~~~~~~~~~~~
sim-outorder.c:663:13: note: in expansion of macro ‘panic’
  663 |          : (panic("bad stat class"), 0))))
      |             ^~~~~
sim-outorder.c:5552:20: note: in expansion of macro ‘STATVAL’
 5552 |           newval = STATVAL(pcstat_stats[i]);
      |                    ^~~~~~~
misc.h:119:26: note: expected ‘char *’ but argument is of type ‘const char *’
  119 | _panic(char *file, char *func, int line, char *fmt, ...)
      |                    ~~~~~~^~~~
sim-outorder.c: In function ‘fetch_init’:
misc.h:103:20: warning: passing argument 2 of ‘_fatal’ discards ‘const’ qualifier from pointer target type [-Wdiscarded-qualifiers]
  103 |   _fatal(__FILE__, __FUNCTION__, __LINE__, fmt, ## args)
      |                    ^~~~~~~~~~~~
sim-outorder.c:5774:7: note: in expansion of macro ‘fatal’
 5774 |       fatal("out of virtual memory");
      |       ^~~~~
misc.h:106:26: note: expected ‘char *’ but argument is of type ‘const char *’
  106 | _fatal(char *file, char *func, int line, char *fmt, ...)
      |                    ~~~~~~^~~~
sim-outorder.c: In function ‘sim_main’:
misc.h:103:20: warning: passing argument 2 of ‘_fatal’ discards ‘const’ qualifier from pointer target type [-Wdiscarded-qualifiers]
  103 |   _fatal(__FILE__, __FUNCTION__, __LINE__, fmt, ## args)
      |                    ^~~~~~~~~~~~
sim-outorder.c:6214:5: note: in expansion of macro ‘fatal’
 6214 |     fatal("Must have enough registers for arch state (32 for each thread)!!");
      |     ^~~~~
misc.h:106:26: note: expected ‘char *’ but argument is of type ‘const char *’
  106 | _fatal(char *file, char *func, int line, char *fmt, ...)
      |                    ~~~~~~^~~~
misc.h:116:20: warning: passing argument 2 of ‘_panic’ discards ‘const’ qualifier from pointer target type [-Wdiscarded-qualifiers]
  116 |   _panic(__FILE__, __FUNCTION__, __LINE__, fmt, ## args)
      |                    ^~~~~~~~~~~~
sim-outorder.c:6297:15: note: in expansion of macro ‘panic’
 6297 |               panic("attempted to execute a linking opcode");
      |               ^~~~~
machine.def:200:1: note: in expansion of macro ‘DEFLINK’
  200 | DEFLINK(CALL_PAL, 0x00, "call_pal", 0, 0xff)
      | ^~~~~~~
misc.h:119:26: note: expected ‘char *’ but argument is of type ‘const char *’
  119 | _panic(char *file, char *func, int line, char *fmt, ...)
      |                    ~~~~~~^~~~
misc.h:116:20: warning: passing argument 2 of ‘_panic’ discards ‘const’ qualifier from pointer target type [-Wdiscarded-qualifiers]
  116 |   _panic(__FILE__, __FUNCTION__, __LINE__, fmt, ## args)
      |                    ^~~~~~~~~~~~
sim-outorder.c:6297:15: note: in expansion of macro ‘panic’
 6297 |               panic("attempted to execute a linking opcode");
      |               ^~~~~
machine.def:311:1: note: in expansion of macro ‘DEFLINK’
  311 | DEFLINK(INTA, 0x10, "inta", 5, 0x7f)
      | ^~~~~~~
misc.h:119:26: note: expected ‘char *’ but argument is of type ‘const char *’
  119 | _panic(char *file, char *func, int line, char *fmt, ...)
      |                    ~~~~~~^~~~
misc.h:116:20: warning: passing argument 2 of ‘_panic’ discards ‘const’ qualifier from pointer target type [-Wdiscarded-qualifiers]
  116 |   _panic(__FILE__, __FUNCTION__, __LINE__, fmt, ## args)
      |                    ^~~~~~~~~~~~
sim-outorder.c:6297:15: note: in expansion of macro ‘panic’
 6297 |               panic("attempted to execute a linking opcode");
      |               ^~~~~
machine.def:313:1: note: in expansion of macro ‘DEFLINK’
  313 | DEFLINK(INTL, 0x11, "intl", 5, 0x7f)
      | ^~~~~~~
misc.h:119:26: note: expected ‘char *’ but argument is of type ‘const char *’
  119 | _panic(char *file, char *func, int line, char *fmt, ...)
      |                    ~~~~~~^~~~
misc.h:116:20: warning: passing argument 2 of ‘_panic’ discards ‘const’ qualifier from pointer target type [-Wdiscarded-qualifiers]
  116 |   _panic(__FILE__, __FUNCTION__, __LINE__, fmt, ## args)
      |                    ^~~~~~~~~~~~
sim-outorder.c:6297:15: note: in expansion of macro ‘panic’
 6297 |               panic("attempted to execute a linking opcode");
      |               ^~~~~
machine.def:315:1: note: in expansion of macro ‘DEFLINK’
  315 | DEFLINK(INTS, 0x12, "ints", 5, 0x7f)
      | ^~~~~~~
misc.h:119:26: note: expected ‘char *’ but argument is of type ‘const char *’
  119 | _panic(char *file, char *func, int line, char *fmt, ...)
      |                    ~~~~~~^~~~
misc.h:116:20: warning: passing argument 2 of ‘_panic’ discards ‘const’ qualifier from pointer target type [-Wdiscarded-qualifiers]
  116 |   _panic(__FILE__, __FUNCTION__, __LINE__, fmt, ## args)
      |                    ^~~~~~~~~~~~
sim-outorder.c:6297:15: note: in expansion of macro ‘panic’
 6297 |               panic("attempted to execute a linking opcode");
      |               ^~~~~
machine.def:318:1: note: in expansion of macro ‘DEFLINK’
  318 | DEFLINK(INTM, 0x13, "intm", 5, 0x3f)
      | ^~~~~~~
misc.h:119:26: note: expected ‘char *’ but argument is of type ‘const char *’
  119 | _panic(char *file, char *func, int line, char *fmt, ...)
      |                    ~~~~~~^~~~
misc.h:116:20: warning: passing argument 2 of ‘_panic’ discards ‘const’ qualifier from pointer target type [-Wdiscarded-qualifiers]
  116 |   _panic(__FILE__, __FUNCTION__, __LINE__, fmt, ## args)
      |                    ^~~~~~~~~~~~
sim-outorder.c:6297:15: note: in expansion of macro ‘panic’
 6297 |               panic("attempted to execute a linking opcode");
      |               ^~~~~
machine.def:323:1: note: in expansion of macro ‘DEFLINK’
  323 | DEFLINK(ITFP, 0x14, "itfp", 5, 0x3f)
      | ^~~~~~~
misc.h:119:26: note: expected ‘char *’ but argument is of type ‘const char *’
  119 | _panic(char *file, char *func, int line, char *fmt, ...)
      |                    ~~~~~~^~~~
misc.h:116:20: warning: passing argument 2 of ‘_panic’ discards ‘const’ qualifier from pointer target type [-Wdiscarded-qualifiers]
  116 |   _panic(__FILE__, __FUNCTION__, __LINE__, fmt, ## args)
      |                    ^~~~~~~~~~~~
sim-outorder.c:6297:15: note: in expansion of macro ‘panic’
 6297 |               panic("attempted to execute a linking opcode");
      |               ^~~~~
machine.def:336:1: note: in expansion of macro ‘DEFLINK’
  336 | DEFLINK(FLTI, 0x16, "flti", 5, 0x3f)
      | ^~~~~~~
misc.h:119:26: note: expected ‘char *’ but argument is of type ‘const char *’
  119 | _panic(char *file, char *func, int line, char *fmt, ...)
      |                    ~~~~~~^~~~
misc.h:116:20: warning: passing argument 2 of ‘_panic’ discards ‘const’ qualifier from pointer target type [-Wdiscarded-qualifiers]
  116 |   _panic(__FILE__, __FUNCTION__, __LINE__, fmt, ## args)
      |                    ^~~~~~~~~~~~
sim-outorder.c:6297:15: note: in expansion of macro ‘panic’
 6297 |               panic("attempted to execute a linking opcode");
      |               ^~~~~
machine.def:338:1: note: in expansion of macro ‘DEFLINK’
  338 | DEFLINK(FLTL, 0x17, "fltl", 5, /* FIXME: check this... */0x7f)
      | ^~~~~~~
misc.h:119:26: note: expected ‘char *’ but argument is of type ‘const char *’
  119 | _panic(char *file, char *func, int line, char *fmt, ...)
      |                    ~~~~~~^~~~
misc.h:116:20: warning: passing argument 2 of ‘_panic’ discards ‘const’ qualifier from pointer target type [-Wdiscarded-qualifiers]
  116 |   _panic(__FILE__, __FUNCTION__, __LINE__, fmt, ## args)
      |                    ^~~~~~~~~~~~
sim-outorder.c:6297:15: note: in expansion of macro ‘panic’
 6297 |               panic("attempted to execute a linking opcode");
      |               ^~~~~
machine.def:341:1: note: in expansion of macro ‘DEFLINK’
  341 | DEFLINK(MISC, 0x18, "misc", 8, 0xff)
      | ^~~~~~~
misc.h:119:26: note: expected ‘char *’ but argument is of type ‘const char *’
  119 | _panic(char *file, char *func, int line, char *fmt, ...)
      |                    ~~~~~~^~~~
misc.h:116:20: warning: passing argument 2 of ‘_panic’ discards ‘const’ qualifier from pointer target type [-Wdiscarded-qualifiers]
  116 |   _panic(__FILE__, __FUNCTION__, __LINE__, fmt, ## args)
      |                    ^~~~~~~~~~~~
sim-outorder.c:6297:15: note: in expansion of macro ‘panic’
 6297 |               panic("attempted to execute a linking opcode");
      |               ^~~~~
machine.def:343:1: note: in expansion of macro ‘DEFLINK’
  343 | DEFLINK(JMPJSR, 0x1a, "jmpjsr", 14, 0x03)
      | ^~~~~~~
misc.h:119:26: note: expected ‘char *’ but argument is of type ‘const char *’
  119 | _panic(char *file, char *func, int line, char *fmt, ...)
      |                    ~~~~~~^~~~
misc.h:116:20: warning: passing argument 2 of ‘_panic’ discards ‘const’ qualifier from pointer target type [-Wdiscarded-qualifiers]
  116 |   _panic(__FILE__, __FUNCTION__, __LINE__, fmt, ## args)
      |                    ^~~~~~~~~~~~
sim-outorder.c:6297:15: note: in expansion of macro ‘panic’
 6297 |               panic("attempted to execute a linking opcode");
      |               ^~~~~
machine.def:346:1: note: in expansion of macro ‘DEFLINK’
  346 | DEFLINK(FPTI, 0x1c, "fpti", 5, 0x7f)
      | ^~~~~~~
misc.h:119:26: note: expected ‘char *’ but argument is of type ‘const char *’
  119 | _panic(char *file, char *func, int line, char *fmt, ...)
      |                    ~~~~~~^~~~
misc.h:116:20: warning: passing argument 2 of ‘_panic’ discards ‘const’ qualifier from pointer target type [-Wdiscarded-qualifiers]
  116 |   _panic(__FILE__, __FUNCTION__, __LINE__, fmt, ## args)
      |                    ^~~~~~~~~~~~
sim-outorder.c:4484:17: note: in expansion of macro ‘panic’
 4484 |    (spec_mode ? panic("speculative syscall") : (void) 0),               \
      |                 ^~~~~
machine.def:775:5: note: in expansion of macro ‘SYSCALL’
  775 |     SYSCALL(inst);                                                      \
      |     ^~~~~~~
host.h:71:25: note: in expansion of macro ‘PAL_CALLSYS_IMPL’
   71 | #define SYMCAT(X,Y)     X##Y
      |                         ^
sim-outorder.c:6293:15: note: in expansion of macro ‘SYMCAT’
 6293 |               SYMCAT(OP,_IMPL);                                         \
      |               ^~~~~~
machine.def:777:1: note: in expansion of macro ‘DEFINST’
  777 | DEFINST(PAL_CALLSYS,            0x83,
      | ^~~~~~~
misc.h:119:26: note: expected ‘char *’ but argument is of type ‘const char *’
  119 | _panic(char *file, char *func, int line, char *fmt, ...)
      |                    ~~~~~~^~~~
misc.h:116:20: warning: passing argument 2 of ‘_panic’ discards ‘const’ qualifier from pointer target type [-Wdiscarded-qualifiers]
  116 |   _panic(__FILE__, __FUNCTION__, __LINE__, fmt, ## args)
      |                    ^~~~~~~~~~~~
sim-outorder.c:6297:15: note: in expansion of macro ‘panic’
 6297 |               panic("attempted to execute a linking opcode");
      |               ^~~~~
machine.def:803:1: note: in expansion of macro ‘DEFLINK’
  803 | DEFLINK(ADDL_LINK, 0x00, "addl_link", 12, 1)
      | ^~~~~~~
misc.h:119:26: note: expected ‘char *’ but argument is of type ‘const char *’
  119 | _panic(char *file, char *func, int line, char *fmt, ...)
      |                    ~~~~~~^~~~
misc.h:116:20: warning: passing argument 2 of ‘_panic’ discards ‘const’ qualifier from pointer target type [-Wdiscarded-qualifiers]
  116 |   _panic(__FILE__, __FUNCTION__, __LINE__, fmt, ## args)
      |                    ^~~~~~~~~~~~
sim-outorder.c:6297:15: note: in expansion of macro ‘panic’
 6297 |               panic("attempted to execute a linking opcode");
      |               ^~~~~
machine.def:805:1: note: in expansion of macro ‘DEFLINK’
  805 | DEFLINK(S4ADDL_LINK, 0x02, "s4addl_link", 12, 1)
      | ^~~~~~~
misc.h:119:26: note: expected ‘char *’ but argument is of type ‘const char *’
  119 | _panic(char *file, char *func, int line, char *fmt, ...)
      |                    ~~~~~~^~~~
misc.h:116:20: warning: passing argument 2 of ‘_panic’ discards ‘const’ qualifier from pointer target type [-Wdiscarded-qualifiers]
  116 |   _panic(__FILE__, __FUNCTION__, __LINE__, fmt, ## args)
      |                    ^~~~~~~~~~~~
sim-outorder.c:6297:15: note: in expansion of macro ‘panic’
 6297 |               panic("attempted to execute a linking opcode");
      |               ^~~~~
machine.def:807:1: note: in expansion of macro ‘DEFLINK’
  807 | DEFLINK(SUBL_LINK, 0x09, "subl_link", 12, 1)
      | ^~~~~~~
misc.h:119:26: note: expected ‘char *’ but argument is of type ‘const char *’
  119 | _panic(char *file, char *func, int line, char *fmt, ...)
      |                    ~~~~~~^~~~
misc.h:116:20: warning: passing argument 2 of ‘_panic’ discards ‘const’ qualifier from pointer target type [-Wdiscarded-qualifiers]
  116 |   _panic(__FILE__, __FUNCTION__, __LINE__, fmt, ## args)
      |                    ^~~~~~~~~~~~
sim-outorder.c:6297:15: note: in expansion of macro ‘panic’
 6297 |               panic("attempted to execute a linking opcode");
      |               ^~~~~
machine.def:809:1: note: in expansion of macro ‘DEFLINK’
  809 | DEFLINK(S4SUBL_LINK, 0x0b, "s4subl_link", 12, 1)
      | ^~~~~~~
misc.h:119:26: note: expected ‘char *’ but argument is of type ‘const char *’
  119 | _panic(char *file, char *func, int line, char *fmt, ...)
      |                    ~~~~~~^~~~
misc.h:116:20: warning: passing argument 2 of ‘_panic’ discards ‘const’ qualifier from pointer target type [-Wdiscarded-qualifiers]
  116 |   _panic(__FILE__, __FUNCTION__, __LINE__, fmt, ## args)
      |                    ^~~~~~~~~~~~
sim-outorder.c:6297:15: note: in expansion of macro ‘panic’
 6297 |               panic("attempted to execute a linking opcode");
      |               ^~~~~
machine.def:811:1: note: in expansion of macro ‘DEFLINK’
  811 | DEFLINK(CMPBGE_LINK, 0x0f, "cmpbge_link", 12, 1)
      | ^~~~~~~
misc.h:119:26: note: expected ‘char *’ but argument is of type ‘const char *’
  119 | _panic(char *file, char *func, int line, char *fmt, ...)
      |                    ~~~~~~^~~~
misc.h:116:20: warning: passing argument 2 of ‘_panic’ discards ‘const’ qualifier from pointer target type [-Wdiscarded-qualifiers]
  116 |   _panic(__FILE__, __FUNCTION__, __LINE__, fmt, ## args)
      |                    ^~~~~~~~~~~~
sim-outorder.c:6297:15: note: in expansion of macro ‘panic’
 6297 |               panic("attempted to execute a linking opcode");
      |               ^~~~~
machine.def:813:1: note: in expansion of macro ‘DEFLINK’
  813 | DEFLINK(S8ADDL_LINK, 0x12, "s8addl_link", 12, 1)
      | ^~~~~~~
misc.h:119:26: note: expected ‘char *’ but argument is of type ‘const char *’
  119 | _panic(char *file, char *func, int line, char *fmt, ...)
      |                    ~~~~~~^~~~
misc.h:116:20: warning: passing argument 2 of ‘_panic’ discards ‘const’ qualifier from pointer target type [-Wdiscarded-qualifiers]
  116 |   _panic(__FILE__, __FUNCTION__, __LINE__, fmt, ## args)
      |                    ^~~~~~~~~~~~
sim-outorder.c:6297:15: note: in expansion of macro ‘panic’
 6297 |               panic("attempted to execute a linking opcode");
      |               ^~~~~
machine.def:815:1: note: in expansion of macro ‘DEFLINK’
  815 | DEFLINK(S8SUBL_LINK, 0x1b, "s8subl_link", 12, 1)
      | ^~~~~~~
misc.h:119:26: note: expected ‘char *’ but argument is of type ‘const char *’
  119 | _panic(char *file, char *func, int line, char *fmt, ...)
      |                    ~~~~~~^~~~
misc.h:116:20: warning: passing argument 2 of ‘_panic’ discards ‘const’ qualifier from pointer target type [-Wdiscarded-qualifiers]
  116 |   _panic(__FILE__, __FUNCTION__, __LINE__, fmt, ## args)
      |                    ^~~~~~~~~~~~
sim-outorder.c:6297:15: note: in expansion of macro ‘panic’
 6297 |               panic("attempted to execute a linking opcode");
      |               ^~~~~
machine.def:817:1: note: in expansion of macro ‘DEFLINK’
  817 | DEFLINK(CMPULT_LINK, 0x1d, "cmpult_link", 12, 1)
      | ^~~~~~~
misc.h:119:26: note: expected ‘char *’ but argument is of type ‘const char *’
  119 | _panic(char *file, char *func, int line, char *fmt, ...)
      |                    ~~~~~~^~~~
misc.h:116:20: warning: passing argument 2 of ‘_panic’ discards ‘const’ qualifier from pointer target type [-Wdiscarded-qualifiers]
  116 |   _panic(__FILE__, __FUNCTION__, __LINE__, fmt, ## args)
      |                    ^~~~~~~~~~~~
sim-outorder.c:6297:15: note: in expansion of macro ‘panic’
 6297 |               panic("attempted to execute a linking opcode");
      |               ^~~~~
machine.def:819:1: note: in expansion of macro ‘DEFLINK’
  819 | DEFLINK(ADDQ_LINK, 0x20, "addq_link", 12, 1)
      | ^~~~~~~
misc.h:119:26: note: expected ‘char *’ but argument is of type ‘const char *’
  119 | _panic(char *file, char *func, int line, char *fmt, ...)
      |                    ~~~~~~^~~~
misc.h:116:20: warning: passing argument 2 of ‘_panic’ discards ‘const’ qualifier from pointer target type [-Wdiscarded-qualifiers]
  116 |   _panic(__FILE__, __FUNCTION__, __LINE__, fmt, ## args)
      |                    ^~~~~~~~~~~~
sim-outorder.c:6297:15: note: in expansion of macro ‘panic’
 6297 |               panic("attempted to execute a linking opcode");
      |               ^~~~~
machine.def:821:1: note: in expansion of macro ‘DEFLINK’
  821 | DEFLINK(S4ADDQ_LINK, 0x22, "s4addq_link", 12, 1)
      | ^~~~~~~
misc.h:119:26: note: expected ‘char *’ but argument is of type ‘const char *’
  119 | _panic(char *file, char *func, int line, char *fmt, ...)
      |                    ~~~~~~^~~~
misc.h:116:20: warning: passing argument 2 of ‘_panic’ discards ‘const’ qualifier from pointer target type [-Wdiscarded-qualifiers]
  116 |   _panic(__FILE__, __FUNCTION__, __LINE__, fmt, ## args)
      |                    ^~~~~~~~~~~~
sim-outorder.c:6297:15: note: in expansion of macro ‘panic’
 6297 |               panic("attempted to execute a linking opcode");
      |               ^~~~~
machine.def:823:1: note: in expansion of macro ‘DEFLINK’
  823 | DEFLINK(SUBQ_LINK, 0x29, "subq_link", 12, 1)
      | ^~~~~~~
misc.h:119:26: note: expected ‘char *’ but argument is of type ‘const char *’
  119 | _panic(char *file, char *func, int line, char *fmt, ...)
      |                    ~~~~~~^~~~
misc.h:116:20: warning: passing argument 2 of ‘_panic’ discards ‘const’ qualifier from pointer target type [-Wdiscarded-qualifiers]
  116 |   _panic(__FILE__, __FUNCTION__, __LINE__, fmt, ## args)
      |                    ^~~~~~~~~~~~
sim-outorder.c:6297:15: note: in expansion of macro ‘panic’
 6297 |               panic("attempted to execute a linking opcode");
      |               ^~~~~
machine.def:825:1: note: in expansion of macro ‘DEFLINK’
  825 | DEFLINK(S4SUBQ_LINK, 0x2b, "s4subq_link", 12, 1)
      | ^~~~~~~
misc.h:119:26: note: expected ‘char *’ but argument is of type ‘const char *’
  119 | _panic(char *file, char *func, int line, char *fmt, ...)
      |                    ~~~~~~^~~~
misc.h:116:20: warning: passing argument 2 of ‘_panic’ discards ‘const’ qualifier from pointer target type [-Wdiscarded-qualifiers]
  116 |   _panic(__FILE__, __FUNCTION__, __LINE__, fmt, ## args)
      |                    ^~~~~~~~~~~~
sim-outorder.c:6297:15: note: in expansion of macro ‘panic’
 6297 |               panic("attempted to execute a linking opcode");
      |               ^~~~~
machine.def:827:1: note: in expansion of macro ‘DEFLINK’
  827 | DEFLINK(CMPEQ_LINK, 0x2d, "cmpeq_link", 12, 1)
      | ^~~~~~~
misc.h:119:26: note: expected ‘char *’ but argument is of type ‘const char *’
  119 | _panic(char *file, char *func, int line, char *fmt, ...)
      |                    ~~~~~~^~~~
misc.h:116:20: warning: passing argument 2 of ‘_panic’ discards ‘const’ qualifier from pointer target type [-Wdiscarded-qualifiers]
  116 |   _panic(__FILE__, __FUNCTION__, __LINE__, fmt, ## args)
      |                    ^~~~~~~~~~~~
sim-outorder.c:6297:15: note: in expansion of macro ‘panic’
[...]
      |               ^~~~~~~~~~~
../misc.h:106:26: note: expected ‘char *’ but argument is of type ‘const char *’
  106 | _fatal(char *file, char *func, int line, char *fmt, ...)
      |                    ~~~~~~^~~~
../misc.h:103:20: warning: passing argument 2 of ‘_fatal’ discards ‘const’ qualifier from pointer target type [-Wdiscarded-qualifiers]
  103 |   _fatal(__FILE__, __FUNCTION__, __LINE__, fmt, ## args)
      |                    ^~~~~~~~~~~~
libexo.h:164:15: note: in expansion of macro ‘fatal’
  164 |       ? (void)fatal("array bounds error")                               \
      |               ^~~~~
libexo.c:477:15: note: in expansion of macro ‘SET_EXO_ARR’
  477 |               SET_EXO_ARR(exo, i, ent);
      |               ^~~~~~~~~~~
../misc.h:106:26: note: expected ‘char *’ but argument is of type ‘const char *’
  106 | _fatal(char *file, char *func, int line, char *fmt, ...)
      |                    ~~~~~~^~~~
../misc.h:116:20: warning: passing argument 2 of ‘_panic’ discards ‘const’ qualifier from pointer target type [-Wdiscarded-qualifiers]
  116 |   _panic(__FILE__, __FUNCTION__, __LINE__, fmt, ## args)
      |                    ^~~~~~~~~~~~
libexo.c:514:7: note: in expansion of macro ‘panic’
  514 |       panic("bogus EXO class");
      |       ^~~~~
../misc.h:119:26: note: expected ‘char *’ but argument is of type ‘const char *’
  119 | _panic(char *file, char *func, int line, char *fmt, ...)
      |                    ~~~~~~^~~~
libexo.c: In function ‘exo_delete’:
../misc.h:116:20: warning: passing argument 2 of ‘_panic’ discards ‘const’ qualifier from pointer target type [-Wdiscarded-qualifiers]
  116 |   _panic(__FILE__, __FUNCTION__, __LINE__, fmt, ## args)
      |                    ^~~~~~~~~~~~
libexo.c:598:7: note: in expansion of macro ‘panic’
  598 |       panic("bogus EXO class");
      |       ^~~~~
../misc.h:119:26: note: expected ‘char *’ but argument is of type ‘const char *’
  119 | _panic(char *file, char *func, int line, char *fmt, ...)
      |                    ~~~~~~^~~~
libexo.c: In function ‘exo_copy’:
../misc.h:103:20: warning: passing argument 2 of ‘_fatal’ discards ‘const’ qualifier from pointer target type [-Wdiscarded-qualifiers]
  103 |   _fatal(__FILE__, __FUNCTION__, __LINE__, fmt, ## args)
      |                    ^~~~~~~~~~~~
libexo.h:162:12: note: in expansion of macro ‘fatal’
  162 |    ? (void)fatal("not an array")                                        \
      |            ^~~~~
libexo.c:667:13: note: in expansion of macro ‘SET_EXO_ARR’
  667 |             SET_EXO_ARR(new_exo, i, EXO_ARR(exo, i));
      |             ^~~~~~~~~~~
../misc.h:106:26: note: expected ‘char *’ but argument is of type ‘const char *’
  106 | _fatal(char *file, char *func, int line, char *fmt, ...)
      |                    ~~~~~~^~~~
../misc.h:103:20: warning: passing argument 2 of ‘_fatal’ discards ‘const’ qualifier from pointer target type [-Wdiscarded-qualifiers]
  103 |   _fatal(__FILE__, __FUNCTION__, __LINE__, fmt, ## args)
      |                    ^~~~~~~~~~~~
libexo.h:164:15: note: in expansion of macro ‘fatal’
  164 |       ? (void)fatal("array bounds error")                               \
      |               ^~~~~
libexo.c:667:13: note: in expansion of macro ‘SET_EXO_ARR’
  667 |             SET_EXO_ARR(new_exo, i, EXO_ARR(exo, i));
      |             ^~~~~~~~~~~
../misc.h:106:26: note: expected ‘char *’ but argument is of type ‘const char *’
  106 | _fatal(char *file, char *func, int line, char *fmt, ...)
      |                    ~~~~~~^~~~
In file included from libexo.c:63:
../misc.h:103:20: warning: passing argument 2 of ‘_fatal’ discards ‘const’ qualifier from pointer target type [-Wdiscarded-qualifiers]
  103 |   _fatal(__FILE__, __FUNCTION__, __LINE__, fmt, ## args)
      |                    ^~~~~~~~~~~~
libexo.h:165:44: note: in definition of macro ‘SET_EXO_ARR’
  165 |       : (void)((E)->as_array.array[(N)] = (V))))
      |                                            ^
libexo.h:156:7: note: in expansion of macro ‘fatal’
  156 |    ? (fatal("not an array"), *(struct exo_term_t **)(NULL))             \
      |       ^~~~~
libexo.c:667:37: note: in expansion of macro ‘EXO_ARR’
  667 |             SET_EXO_ARR(new_exo, i, EXO_ARR(exo, i));
      |                                     ^~~~~~~
../misc.h:106:26: note: expected ‘char *’ but argument is of type ‘const char *’
  106 | _fatal(char *file, char *func, int line, char *fmt, ...)
      |                    ~~~~~~^~~~
../misc.h:103:20: warning: passing argument 2 of ‘_fatal’ discards ‘const’ qualifier from pointer target type [-Wdiscarded-qualifiers]
  103 |   _fatal(__FILE__, __FUNCTION__, __LINE__, fmt, ## args)
      |                    ^~~~~~~~~~~~
libexo.h:165:44: note: in definition of macro ‘SET_EXO_ARR’
  165 |       : (void)((E)->as_array.array[(N)] = (V))))
      |                                            ^
libexo.h:158:10: note: in expansion of macro ‘fatal’
  158 |       ? (fatal("array bounds error"), *(struct exo_term_t **)(NULL))    \
      |          ^~~~~
libexo.c:667:37: note: in expansion of macro ‘EXO_ARR’
  667 |             SET_EXO_ARR(new_exo, i, EXO_ARR(exo, i));
      |                                     ^~~~~~~
../misc.h:106:26: note: expected ‘char *’ but argument is of type ‘const char *’
  106 | _fatal(char *file, char *func, int line, char *fmt, ...)
      |                    ~~~~~~^~~~
../misc.h:116:20: warning: passing argument 2 of ‘_panic’ discards ‘const’ qualifier from pointer target type [-Wdiscarded-qualifiers]
  116 |   _panic(__FILE__, __FUNCTION__, __LINE__, fmt, ## args)
      |                    ^~~~~~~~~~~~
libexo.c:678:7: note: in expansion of macro ‘panic’
  678 |       panic("bogus EXO class");
      |       ^~~~~
../misc.h:119:26: note: expected ‘char *’ but argument is of type ‘const char *’
  119 | _panic(char *file, char *func, int line, char *fmt, ...)
      |                    ~~~~~~^~~~
libexo.c: In function ‘exo_deepcopy’:
../misc.h:103:20: warning: passing argument 2 of ‘_fatal’ discards ‘const’ qualifier from pointer target type [-Wdiscarded-qualifiers]
  103 |   _fatal(__FILE__, __FUNCTION__, __LINE__, fmt, ## args)
      |                    ^~~~~~~~~~~~
libexo.h:162:12: note: in expansion of macro ‘fatal’
  162 |    ? (void)fatal("not an array")                                        \
      |            ^~~~~
libexo.c:733:13: note: in expansion of macro ‘SET_EXO_ARR’
  733 |             SET_EXO_ARR(new_exo, i, exo_deepcopy(EXO_ARR(exo, i)));
      |             ^~~~~~~~~~~
../misc.h:106:26: note: expected ‘char *’ but argument is of type ‘const char *’
  106 | _fatal(char *file, char *func, int line, char *fmt, ...)
      |                    ~~~~~~^~~~
../misc.h:103:20: warning: passing argument 2 of ‘_fatal’ discards ‘const’ qualifier from pointer target type [-Wdiscarded-qualifiers]
  103 |   _fatal(__FILE__, __FUNCTION__, __LINE__, fmt, ## args)
      |                    ^~~~~~~~~~~~
libexo.h:164:15: note: in expansion of macro ‘fatal’
  164 |       ? (void)fatal("array bounds error")                               \
      |               ^~~~~
libexo.c:733:13: note: in expansion of macro ‘SET_EXO_ARR’
  733 |             SET_EXO_ARR(new_exo, i, exo_deepcopy(EXO_ARR(exo, i)));
      |             ^~~~~~~~~~~
../misc.h:106:26: note: expected ‘char *’ but argument is of type ‘const char *’
  106 | _fatal(char *file, char *func, int line, char *fmt, ...)
      |                    ~~~~~~^~~~
../misc.h:103:20: warning: passing argument 2 of ‘_fatal’ discards ‘const’ qualifier from pointer target type [-Wdiscarded-qualifiers]
  103 |   _fatal(__FILE__, __FUNCTION__, __LINE__, fmt, ## args)
      |                    ^~~~~~~~~~~~
libexo.h:165:44: note: in definition of macro ‘SET_EXO_ARR’
  165 |       : (void)((E)->as_array.array[(N)] = (V))))
      |                                            ^
libexo.h:156:7: note: in expansion of macro ‘fatal’
  156 |    ? (fatal("not an array"), *(struct exo_term_t **)(NULL))             \
      |       ^~~~~
libexo.c:733:50: note: in expansion of macro ‘EXO_ARR’
  733 |             SET_EXO_ARR(new_exo, i, exo_deepcopy(EXO_ARR(exo, i)));
      |                                                  ^~~~~~~
../misc.h:106:26: note: expected ‘char *’ but argument is of type ‘const char *’
  106 | _fatal(char *file, char *func, int line, char *fmt, ...)
      |                    ~~~~~~^~~~
../misc.h:103:20: warning: passing argument 2 of ‘_fatal’ discards ‘const’ qualifier from pointer target type [-Wdiscarded-qualifiers]
  103 |   _fatal(__FILE__, __FUNCTION__, __LINE__, fmt, ## args)
      |                    ^~~~~~~~~~~~
libexo.h:165:44: note: in definition of macro ‘SET_EXO_ARR’
  165 |       : (void)((E)->as_array.array[(N)] = (V))))
      |                                            ^
libexo.h:158:10: note: in expansion of macro ‘fatal’
  158 |       ? (fatal("array bounds error"), *(struct exo_term_t **)(NULL))    \
      |          ^~~~~
libexo.c:733:50: note: in expansion of macro ‘EXO_ARR’
  733 |             SET_EXO_ARR(new_exo, i, exo_deepcopy(EXO_ARR(exo, i)));
      |                                                  ^~~~~~~
../misc.h:106:26: note: expected ‘char *’ but argument is of type ‘const char *’
  106 | _fatal(char *file, char *func, int line, char *fmt, ...)
      |                    ~~~~~~^~~~
../misc.h:116:20: warning: passing argument 2 of ‘_panic’ discards ‘const’ qualifier from pointer target type [-Wdiscarded-qualifiers]
  116 |   _panic(__FILE__, __FUNCTION__, __LINE__, fmt, ## args)
      |                    ^~~~~~~~~~~~
libexo.c:744:7: note: in expansion of macro ‘panic’
  744 |       panic("bogus EXO class");
      |       ^~~~~
../misc.h:119:26: note: expected ‘char *’ but argument is of type ‘const char *’
  119 | _panic(char *file, char *func, int line, char *fmt, ...)
      |                    ~~~~~~^~~~
libexo.c: In function ‘exo_print’:
../misc.h:103:20: warning: passing argument 2 of ‘_fatal’ discards ‘const’ qualifier from pointer target type [-Wdiscarded-qualifiers]
  103 |   _fatal(__FILE__, __FUNCTION__, __LINE__, fmt, ## args)
      |                    ^~~~~~~~~~~~
libexo.h:156:7: note: in expansion of macro ‘fatal’
  156 |    ? (fatal("not an array"), *(struct exo_term_t **)(NULL))             \
      |       ^~~~~
libexo.c:811:17: note: in expansion of macro ‘EXO_ARR’
  811 |             if (EXO_ARR(exo, last) != NULL)
      |                 ^~~~~~~
../misc.h:106:26: note: expected ‘char *’ but argument is of type ‘const char *’
  106 | _fatal(char *file, char *func, int line, char *fmt, ...)
      |                    ~~~~~~^~~~
../misc.h:103:20: warning: passing argument 2 of ‘_fatal’ discards ‘const’ qualifier from pointer target type [-Wdiscarded-qualifiers]
  103 |   _fatal(__FILE__, __FUNCTION__, __LINE__, fmt, ## args)
      |                    ^~~~~~~~~~~~
libexo.h:158:10: note: in expansion of macro ‘fatal’
  158 |       ? (fatal("array bounds error"), *(struct exo_term_t **)(NULL))    \
      |          ^~~~~
libexo.c:811:17: note: in expansion of macro ‘EXO_ARR’
  811 |             if (EXO_ARR(exo, last) != NULL)
      |                 ^~~~~~~
../misc.h:106:26: note: expected ‘char *’ but argument is of type ‘const char *’
  106 | _fatal(char *file, char *func, int line, char *fmt, ...)
      |                    ~~~~~~^~~~
../misc.h:116:20: warning: passing argument 2 of ‘_panic’ discards ‘const’ qualifier from pointer target type [-Wdiscarded-qualifiers]
  116 |   _panic(__FILE__, __FUNCTION__, __LINE__, fmt, ## args)
      |                    ^~~~~~~~~~~~
libexo.c:856:7: note: in expansion of macro ‘panic’
  856 |       panic("bogus EXO class");
      |       ^~~~~
../misc.h:119:26: note: expected ‘char *’ but argument is of type ‘const char *’
  119 | _panic(char *file, char *func, int line, char *fmt, ...)
      |                    ~~~~~~^~~~
libexo.c: In function ‘exo_read’:
../misc.h:103:20: warning: passing argument 2 of ‘_fatal’ discards ‘const’ qualifier from pointer target type [-Wdiscarded-qualifiers]
  103 |   _fatal(__FILE__, __FUNCTION__, __LINE__, fmt, ## args)
      |                    ^~~~~~~~~~~~
libexo.h:162:12: note: in expansion of macro ‘fatal’
  162 |    ? (void)fatal("not an array")                                        \
      |            ^~~~~
libexo.c:1073:19: note: in expansion of macro ‘SET_EXO_ARR’
 1073 |                   SET_EXO_ARR(ent, cnt, elt);
      |                   ^~~~~~~~~~~
../misc.h:106:26: note: expected ‘char *’ but argument is of type ‘const char *’
  106 | _fatal(char *file, char *func, int line, char *fmt, ...)
      |                    ~~~~~~^~~~
../misc.h:103:20: warning: passing argument 2 of ‘_fatal’ discards ‘const’ qualifier from pointer target type [-Wdiscarded-qualifiers]
  103 |   _fatal(__FILE__, __FUNCTION__, __LINE__, fmt, ## args)
      |                    ^~~~~~~~~~~~
libexo.h:164:15: note: in expansion of macro ‘fatal’
  164 |       ? (void)fatal("array bounds error")                               \
      |               ^~~~~
libexo.c:1073:19: note: in expansion of macro ‘SET_EXO_ARR’
 1073 |                   SET_EXO_ARR(ent, cnt, elt);
      |                   ^~~~~~~~~~~
../misc.h:106:26: note: expected ‘char *’ but argument is of type ‘const char *’
  106 | _fatal(char *file, char *func, int line, char *fmt, ...)
      |                    ~~~~~~^~~~
../misc.h:116:20: warning: passing argument 2 of ‘_panic’ discards ‘const’ qualifier from pointer target type [-Wdiscarded-qualifiers]
  116 |   _panic(__FILE__, __FUNCTION__, __LINE__, fmt, ## args)
      |                    ^~~~~~~~~~~~
libexo.c:1114:25: note: in expansion of macro ‘panic’
 1114 |                         panic("bogus byte value");
      |                         ^~~~~
../misc.h:119:26: note: expected ‘char *’ but argument is of type ‘const char *’
  119 | _panic(char *file, char *func, int line, char *fmt, ...)
      |                    ~~~~~~^~~~
../misc.h:103:20: warning: passing argument 2 of ‘_fatal’ discards ‘const’ qualifier from pointer target type [-Wdiscarded-qualifiers]
  103 |   _fatal(__FILE__, __FUNCTION__, __LINE__, fmt, ## args)
      |                    ^~~~~~~~~~~~
libexo.h:162:12: note: in expansion of macro ‘fatal’
  162 |    ? (void)fatal("not an array")                                        \
      |            ^~~~~
libexo.c:1192:17: note: in expansion of macro ‘SET_EXO_ARR’
 1192 |                 SET_EXO_ARR(ent, cnt, NULL);
      |                 ^~~~~~~~~~~
../misc.h:106:26: note: expected ‘char *’ but argument is of type ‘const char *’
  106 | _fatal(char *file, char *func, int line, char *fmt, ...)
      |                    ~~~~~~^~~~
../misc.h:103:20: warning: passing argument 2 of ‘_fatal’ discards ‘const’ qualifier from pointer target type [-Wdiscarded-qualifiers]
  103 |   _fatal(__FILE__, __FUNCTION__, __LINE__, fmt, ## args)
      |                    ^~~~~~~~~~~~
libexo.h:164:15: note: in expansion of macro ‘fatal’
  164 |       ? (void)fatal("array bounds error")                               \
      |               ^~~~~
libexo.c:1192:17: note: in expansion of macro ‘SET_EXO_ARR’
 1192 |                 SET_EXO_ARR(ent, cnt, NULL);
      |                 ^~~~~~~~~~~
../misc.h:106:26: note: expected ‘char *’ but argument is of type ‘const char *’
  106 | _fatal(char *file, char *func, int line, char *fmt, ...)
      |                    ~~~~~~^~~~
../misc.h:103:20: warning: passing argument 2 of ‘_fatal’ discards ‘const’ qualifier from pointer target type [-Wdiscarded-qualifiers]
  103 |   _fatal(__FILE__, __FUNCTION__, __LINE__, fmt, ## args)
      |                    ^~~~~~~~~~~~
libexo.h:162:12: note: in expansion of macro ‘fatal’
  162 |    ? (void)fatal("not an array")                                        \
      |            ^~~~~
libexo.c:1197:17: note: in expansion of macro ‘SET_EXO_ARR’
 1197 |                 SET_EXO_ARR(ent, cnt, elt);
      |                 ^~~~~~~~~~~
../misc.h:106:26: note: expected ‘char *’ but argument is of type ‘const char *’
  106 | _fatal(char *file, char *func, int line, char *fmt, ...)
      |                    ~~~~~~^~~~
../misc.h:103:20: warning: passing argument 2 of ‘_fatal’ discards ‘const’ qualifier from pointer target type [-Wdiscarded-qualifiers]
  103 |   _fatal(__FILE__, __FUNCTION__, __LINE__, fmt, ## args)
      |                    ^~~~~~~~~~~~
libexo.h:164:15: note: in expansion of macro ‘fatal’
  164 |       ? (void)fatal("array bounds error")                               \
      |               ^~~~~
libexo.c:1197:17: note: in expansion of macro ‘SET_EXO_ARR’
 1197 |                 SET_EXO_ARR(ent, cnt, elt);
      |                 ^~~~~~~~~~~
../misc.h:106:26: note: expected ‘char *’ but argument is of type ‘const char *’
  106 | _fatal(char *file, char *func, int line, char *fmt, ...)
      |                    ~~~~~~^~~~
../misc.h:116:20: warning: passing argument 2 of ‘_panic’ discards ‘const’ qualifier from pointer target type [-Wdiscarded-qualifiers]
  116 |   _panic(__FILE__, __FUNCTION__, __LINE__, fmt, ## args)
      |                    ^~~~~~~~~~~~
libexo.c:1214:7: note: in expansion of macro ‘panic’
 1214 |       panic("bogus token");
      |       ^~~~~
../misc.h:119:26: note: expected ‘char *’ but argument is of type ‘const char *’
  119 | _panic(char *file, char *func, int line, char *fmt, ...)
      |                    ~~~~~~^~~~
In file included from exolex.l:59:
exolex.l: In function ‘yylex’:
../misc.h:103:20: warning: passing argument 2 of ‘_fatal’ discards ‘const’ qualifier from pointer target type [-Wdiscarded-qualifiers]
  103 |   _fatal(__FILE__, __FUNCTION__, __LINE__, fmt, ## args)
      |                    ^~~~~~~~~~~~
exolex.l:123:43: note: in expansion of macro ‘fatal’
  123 |                                           fatal("bogus character in input"); }
      |                                           ^~~~~
../misc.h:106:26: note: expected ‘char *’ but argument is of type ‘const char *’
  106 | _fatal(char *file, char *func, int line, char *fmt, ...)
      |                    ~~~~~~^~~~
exolex.l: In function ‘yy_setstream’:
../misc.h:103:20: warning: passing argument 2 of ‘_fatal’ discards ‘const’ qualifier from pointer target type [-Wdiscarded-qualifiers]
  103 |   _fatal(__FILE__, __FUNCTION__, __LINE__, fmt, ## args)
      |                    ^~~~~~~~~~~~
exolex.l:195:5: note: in expansion of macro ‘fatal’
  195 |     fatal("out of lex buffer streams, increase MAX_STREAMS");
      |     ^~~~~
../misc.h:106:26: note: expected ‘char *’ but argument is of type ‘const char *’
  106 | _fatal(char *file, char *func, int line, char *fmt, ...)
      |                    ~~~~~~^~~~
/bin/sh: line 2: ./sysprobe: No such file or directory
In file included from time.c:45:
def.h:211:9: warning: "NULL" redefined
  211 | #define NULL 0
      |         ^~~~
In file included from /usr/include/stdlib.h:32,
                 from def.h:45:
/usr/lib/gcc/x86_64-redhat-linux/14/include/stddef.h:404:9: note: this is the location of the previous definition
  404 | #define NULL ((void *)0)
      |         ^~~~
In file included from io.c:47:
def.h:211:9: warning: "NULL" redefined
  211 | #define NULL 0
      |         ^~~~
In file included from /usr/include/stdlib.h:32,
                 from io.c:45:
/usr/lib/gcc/x86_64-redhat-linux/14/include/stddef.h:404:9: note: this is the location of the previous definition
  404 | #define NULL ((void *)0)
      |         ^~~~
In file included from io.h:4,
                 from main.c:44:
def.h:211:9: warning: "NULL" redefined
  211 | #define NULL 0
      |         ^~~~
In file included from /usr/include/stdlib.h:32,
                 from def.h:45:
/usr/lib/gcc/x86_64-redhat-linux/14/include/stddef.h:404:9: note: this is the location of the previous definition
  404 | #define NULL ((void *)0)
      |         ^~~~
